/*---------------------------------------------------------------------------*\
| =========                 |                                                 |
| \\      /  F ield         | OpenFOAM: The Open Source CFD Toolbox           |
|  \\    /   O peration     | Version:  2412                                  |
|   \\  /    A nd           | Website:  www.openfoam.com                      |
|    \\/     M anipulation  |                                                 |
\*---------------------------------------------------------------------------*/
Build  : _8dbc61e11c-20241220 OPENFOAM=2412 version=v2412
Arch   : "LSB;label=32;scalar=64"
Exec   : checkMesh
Date   : May 30 2025
Time   : 18:33:45
Host   : am409
PID    : 1578091
I/O    : uncollated
Case   : /home/roko/examinationAssignmentFiles_part1/Diffuser/SpalartAllmaras
nProcs : 1
trapFpe: Floating point exception trapping enabled (FOAM_SIGFPE).
fileModificationChecking : Monitoring run-time modified files using timeStampMaster (fileModificationSkew 5, maxFileModificationPolls 20)
allowSystemOperations : Allowing user-supplied system call operations

// * * * * * * * * * * * * * * * * * * * * * * * * * * * * * * * * * * * * * //
Create time

Create mesh for time = 0

Check mesh...

Time = 0

Mesh stats 
    points:           65604
    internal points:  0
    faces:            129521
    internal faces:   63919
    cells:            32240
    faces per cell:   6
    boundary patches: 5
    point zones:      0
    face zones:       0
    cell zones:       0

Overall number of cells of each type:
    hexahedra:     32240
    prisms:        0
    wedges:        0
    pyramids:      0
    tet wedges:    0
    tetrahedra:    0
    polyhedra:     0

Checking topology...
    Boundary definition OK.
    Cell to face addressing OK.
    Point usage OK.
    Upper triangular ordering OK.
    Face vertices OK.
    Number of regions: 1 (OK).

Checking patch topology for multiply connected surfaces...
    Patch               Faces    Points     Surface topology
    lowerWall           496      994      ok (non-closed singly connected)  
    upperWall           496      994      ok (non-closed singly connected)  
    outlet              65       132      ok (non-closed singly connected)  
    inlet               65       132      ok (non-closed singly connected)  
    frontAndBackPlanes  64480    65604    ok (non-closed singly connected)  
    ".*"                65602    65604    ok (closed singly connected)      


Checking faceZone topology for multiply connected surfaces...
    No faceZones found.

Checking basic cellZone addressing...
    No cellZones found.

Checking basic pointZone addressing...
    No pointZones found.

Checking geometry...
    Overall domain bounding box (-110.848 1.08896e-15 -1.88755) (77.848 4.7 1.88755)
    Mesh has 2 geometric (non-empty/wedge) directions (1 1 0)
    Mesh has 2 solution (non-empty) directions (1 1 0)
    All edges aligned with or perpendicular to non-empty directions.
    Boundary openness (-3.6921e-18 3.50965e-16 9.46452e-20) OK.
    Max cell openness = 5.67782e-16 OK.
    Max aspect ratio = 500 OK.
    Minimum face area = 0.000123677. Maximum face area = 3.77511.  Face area magnitudes OK.
    Min volume = 0.000466891. Max volume = 0.920663.  Total volume = 1653.05.  Cell volumes OK.
    Mesh non-orthogonality Max: 10.4015 average: 3.53897
    Non-orthogonality check OK.
    Face pyramids OK.
    Max skewness = 0.0268286 OK.
    Coupled point location match (average 0) OK.

Mesh OK.

End

