/*---------------------------------------------------------------------------*\
| =========                 |                                                 |
| \\      /  F ield         | OpenFOAM: The Open Source CFD Toolbox           |
|  \\    /   O peration     | Version:  2412                                  |
|   \\  /    A nd           | Website:  www.openfoam.com                      |
|    \\/     M anipulation  |                                                 |
\*---------------------------------------------------------------------------*/
Build  : _8dbc61e11c-20241220 OPENFOAM=2412 version=v2412
Arch   : "LSB;label=32;scalar=64"
Exec   : simpleFoam
Date   : May 30 2025
Time   : 18:33:46
Host   : am409
PID    : 1578098
I/O    : uncollated
Case   : /home/roko/examinationAssignmentFiles_part1/Diffuser/SpalartAllmaras
nProcs : 1
trapFpe: Floating point exception trapping enabled (FOAM_SIGFPE).
fileModificationChecking : Monitoring run-time modified files using timeStampMaster (fileModificationSkew 5, maxFileModificationPolls 20)
allowSystemOperations : Allowing user-supplied system call operations

// * * * * * * * * * * * * * * * * * * * * * * * * * * * * * * * * * * * * * //
Create time

Create mesh for time = 0


SIMPLE: convergence criteria
    field p	 tolerance 1e-05
    field U	 tolerance 1e-05
    field "(k|epsilon|omega|f|v2|nuTilda)"	 tolerance 1e-05

Reading field p

Reading field U

Reading/calculating face flux field phi

Selecting incompressible transport model Newtonian
Selecting turbulence model type RAS
Selecting RAS turbulence model SpalartAllmaras
Selecting patchDistMethod meshWave
ft2 term: inactive
RAS
{
    RASModel        SpalartAllmaras;
    turbulence      on;
    printCoeffs     on;
    sigmaNut        0.66666;
    kappa           0.41;
    Cb1             0.1355;
    Cb2             0.622;
    Cw2             0.3;
    Cw3             2;
    Cv1             7.1;
    Cs              0.3;
    ck              0.07;
    ft2             false;
    Ct3             1.2;
    Ct4             0.5;
}

No MRF models present

No finite volume options present

Starting time loop

wallShearStress wallShearStress:
    processing (2) wall patches:
        lowerWall
        upperWall

turbulenceFields turbulenceFields1: storing fields:
    turbulenceProperties:R

Sampled surface:
    lowerWall -> raw
        sampledPatch: lowerWall : patches:(lowerWall)
    upperWall -> raw
        sampledPatch: upperWall : patches:(upperWall)

Sampled surface:
    interface -> raw
        isoSurface: interface : isoMethod:cell regularise:full snap:1 field:Ux value:(0)

Sampled set:
    line -> raw

Sampled set:
    line -> raw

Sampled set:
    line -> raw

Sampled set:
    line -> raw

Sampled set:
    line -> raw

Sampled set:
    line -> raw

Sampled set:
    line -> raw

Sampled set:
    line -> raw

Sampled set:
    line -> raw

Sampled set:
    line -> raw

Sampled set:
    line -> raw

Sampled set:
    line -> raw

Sampled set:
    line -> raw

Sampled set:
    line -> raw

Sampled set:
    line -> raw

Sampled set:
    line -> raw

Sampled set:
    line -> raw

Sampled set:
    line -> raw

Sampled set:
    line -> raw

Sampled set:
    line -> raw

Sampled set:
    line -> raw

Sampled set:
    line -> raw

Sampled set:
    line -> raw

Sampled set:
    line -> raw

Time = 1

smoothSolver:  Solving for Ux, Initial residual = 1, Final residual = 0.0530769, No Iterations 1
smoothSolver:  Solving for Uy, Initial residual = 0.999982, Final residual = 0.0799343, No Iterations 1
GAMG:  Solving for p, Initial residual = 1, Final residual = 0.0995384, No Iterations 842
time step continuity errors : sum local = 0.000409171, global = -0.000173185, cumulative = -0.000173185
smoothSolver:  Solving for nuTilda, Initial residual = 1, Final residual = 0.0155781, No Iterations 2
bounding nuTilda, min: -1.44118e-12 max: 3e-05 average: 1.46734e-08
ExecutionTime = 13.07 s  ClockTime = 13 s

Time = 2

smoothSolver:  Solving for Ux, Initial residual = 0.0456426, Final residual = 0.00350672, No Iterations 2
smoothSolver:  Solving for Uy, Initial residual = 0.292203, Final residual = 0.00882749, No Iterations 2
GAMG:  Solving for p, Initial residual = 0.0331256, Final residual = 0.00330367, No Iterations 68
time step continuity errors : sum local = 0.00301272, global = 0.000546042, cumulative = 0.000372856
smoothSolver:  Solving for nuTilda, Initial residual = 0.366057, Final residual = 0.00432914, No Iterations 2
bounding nuTilda, min: -3.41321e-13 max: 3.65761e-05 average: 4.15382e-08
ExecutionTime = 13.46 s  ClockTime = 14 s

Time = 3

smoothSolver:  Solving for Ux, Initial residual = 0.0365458, Final residual = 0.00314378, No Iterations 2
smoothSolver:  Solving for Uy, Initial residual = 0.296717, Final residual = 0.0247218, No Iterations 1
GAMG:  Solving for p, Initial residual = 0.0370123, Final residual = 0.00368913, No Iterations 280
time step continuity errors : sum local = 0.00226445, global = 0.000469772, cumulative = 0.000842628
smoothSolver:  Solving for nuTilda, Initial residual = 0.183661, Final residual = 0.0132272, No Iterations 1
bounding nuTilda, min: -1.4804e-19 max: 3.617e-05 average: 6.2663e-08
ExecutionTime = 14.7 s  ClockTime = 15 s

Time = 4

smoothSolver:  Solving for Ux, Initial residual = 0.0296549, Final residual = 0.00263937, No Iterations 2
smoothSolver:  Solving for Uy, Initial residual = 0.103422, Final residual = 0.00387134, No Iterations 2
GAMG:  Solving for p, Initial residual = 0.0847773, Final residual = 0.00846976, No Iterations 344
time step continuity errors : sum local = 0.00161169, global = 0.000359419, cumulative = 0.00120205
smoothSolver:  Solving for nuTilda, Initial residual = 0.133871, Final residual = 0.00823855, No Iterations 1
bounding nuTilda, min: -2.67344e-18 max: 3.34316e-05 average: 8.41577e-08
ExecutionTime = 16.21 s  ClockTime = 17 s

Time = 5

smoothSolver:  Solving for Ux, Initial residual = 0.0281168, Final residual = 0.00228938, No Iterations 2
smoothSolver:  Solving for Uy, Initial residual = 0.0848226, Final residual = 0.0036827, No Iterations 2
GAMG:  Solving for p, Initial residual = 0.0265302, Final residual = 0.00264247, No Iterations 176
time step continuity errors : sum local = 0.00144569, global = 0.000330356, cumulative = 0.0015324
smoothSolver:  Solving for nuTilda, Initial residual = 0.101841, Final residual = 0.00713884, No Iterations 1
bounding nuTilda, min: -5.54246e-19 max: 3.23932e-05 average: 1.07143e-07
ExecutionTime = 17.03 s  ClockTime = 17 s

Time = 6

smoothSolver:  Solving for Ux, Initial residual = 0.0285661, Final residual = 0.00219128, No Iterations 2
smoothSolver:  Solving for Uy, Initial residual = 0.0935008, Final residual = 0.00401091, No Iterations 2
GAMG:  Solving for p, Initial residual = 0.0185896, Final residual = 0.00185184, No Iterations 238
time step continuity errors : sum local = 0.0012989, global = 0.000233273, cumulative = 0.00176568
smoothSolver:  Solving for nuTilda, Initial residual = 0.0846037, Final residual = 0.00653365, No Iterations 1
bounding nuTilda, min: -5.33492e-15 max: 3.23336e-05 average: 1.32369e-07
ExecutionTime = 18.08 s  ClockTime = 18 s

Time = 7

smoothSolver:  Solving for Ux, Initial residual = 0.0294378, Final residual = 0.0021217, No Iterations 2
smoothSolver:  Solving for Uy, Initial residual = 0.0987392, Final residual = 0.00414899, No Iterations 2
GAMG:  Solving for p, Initial residual = 0.0179299, Final residual = 0.00179186, No Iterations 146
time step continuity errors : sum local = 0.00133014, global = 0.00020166, cumulative = 0.00196734
smoothSolver:  Solving for nuTilda, Initial residual = 0.0724018, Final residual = 0.00598957, No Iterations 1
bounding nuTilda, min: -2.70419e-17 max: 3.22285e-05 average: 1.59733e-07
ExecutionTime = 18.78 s  ClockTime = 19 s

Time = 8

smoothSolver:  Solving for Ux, Initial residual = 0.0307035, Final residual = 0.00220096, No Iterations 2
smoothSolver:  Solving for Uy, Initial residual = 0.1047, Final residual = 0.00483179, No Iterations 2
GAMG:  Solving for p, Initial residual = 0.0196893, Final residual = 0.00196405, No Iterations 127
time step continuity errors : sum local = 0.00142629, global = -0.000260943, cumulative = 0.00170639
smoothSolver:  Solving for nuTilda, Initial residual = 0.0648227, Final residual = 0.00578067, No Iterations 1
bounding nuTilda, min: -1.46156e-14 max: 3.55489e-05 average: 1.89659e-07
ExecutionTime = 19.4 s  ClockTime = 20 s

Time = 9

smoothSolver:  Solving for Ux, Initial residual = 0.0326266, Final residual = 0.00244157, No Iterations 2
smoothSolver:  Solving for Uy, Initial residual = 0.112729, Final residual = 0.00619635, No Iterations 2
GAMG:  Solving for p, Initial residual = 0.0255404, Final residual = 0.00254038, No Iterations 117
time step continuity errors : sum local = 0.00155233, global = -0.000310337, cumulative = 0.00139606
smoothSolver:  Solving for nuTilda, Initial residual = 0.0589513, Final residual = 0.00566428, No Iterations 1
bounding nuTilda, min: -7.98424e-14 max: 4.04337e-05 average: 2.22728e-07
ExecutionTime = 19.98 s  ClockTime = 20 s

Time = 10

smoothSolver:  Solving for Ux, Initial residual = 0.0358532, Final residual = 0.00289206, No Iterations 2
smoothSolver:  Solving for Uy, Initial residual = 0.123044, Final residual = 0.00809796, No Iterations 2
GAMG:  Solving for p, Initial residual = 0.0323026, Final residual = 0.00321439, No Iterations 83
time step continuity errors : sum local = 0.0018042, global = -0.000355416, cumulative = 0.00104064
smoothSolver:  Solving for nuTilda, Initial residual = 0.0541094, Final residual = 0.00082806, No Iterations 2
bounding nuTilda, min: -7.82421e-14 max: 4.75774e-05 average: 2.61898e-07
ExecutionTime = 20.41 s  ClockTime = 21 s

Time = 11

smoothSolver:  Solving for Ux, Initial residual = 0.0405285, Final residual = 0.00351495, No Iterations 2
smoothSolver:  Solving for Uy, Initial residual = 0.137057, Final residual = 0.0107954, No Iterations 2
GAMG:  Solving for p, Initial residual = 0.042642, Final residual = 0.00424193, No Iterations 61
time step continuity errors : sum local = 0.00217745, global = -0.000410227, cumulative = 0.000630414
smoothSolver:  Solving for nuTilda, Initial residual = 0.0508709, Final residual = 0.000895976, No Iterations 2
bounding nuTilda, min: -4.59608e-14 max: 5.5469e-05 average: 3.08043e-07
ExecutionTime = 20.75 s  ClockTime = 21 s

Time = 12

smoothSolver:  Solving for Ux, Initial residual = 0.0472147, Final residual = 0.00437346, No Iterations 2
smoothSolver:  Solving for Uy, Initial residual = 0.14916, Final residual = 0.013469, No Iterations 2
GAMG:  Solving for p, Initial residual = 0.0554625, Final residual = 0.00550783, No Iterations 49
time step continuity errors : sum local = 0.00264623, global = -0.000469184, cumulative = 0.00016123
smoothSolver:  Solving for nuTilda, Initial residual = 0.0494602, Final residual = 0.000985076, No Iterations 2
bounding nuTilda, min: -3.06722e-13 max: 6.46098e-05 average: 3.63438e-07
ExecutionTime = 21.05 s  ClockTime = 21 s

Time = 13

smoothSolver:  Solving for Ux, Initial residual = 0.0543055, Final residual = 0.00537246, No Iterations 2
smoothSolver:  Solving for Uy, Initial residual = 0.157309, Final residual = 0.0156648, No Iterations 2
GAMG:  Solving for p, Initial residual = 0.0680453, Final residual = 0.00677813, No Iterations 35
time step continuity errors : sum local = 0.00313754, global = -0.00052332, cumulative = -0.00036209
smoothSolver:  Solving for nuTilda, Initial residual = 0.0487735, Final residual = 0.00107813, No Iterations 2
bounding nuTilda, min: -2.75681e-12 max: 7.42698e-05 average: 4.30819e-07
ExecutionTime = 21.28 s  ClockTime = 22 s

Time = 14

smoothSolver:  Solving for Ux, Initial residual = 0.0623864, Final residual = 0.00300507, No Iterations 3
smoothSolver:  Solving for Uy, Initial residual = 0.162622, Final residual = 0.00819978, No Iterations 3
GAMG:  Solving for p, Initial residual = 0.0844288, Final residual = 0.00825214, No Iterations 17
time step continuity errors : sum local = 0.0037838, global = -0.000324567, cumulative = -0.000686657
smoothSolver:  Solving for nuTilda, Initial residual = 0.0477482, Final residual = 0.00114997, No Iterations 2
bounding nuTilda, min: -7.23033e-12 max: 8.83438e-05 average: 5.13534e-07
ExecutionTime = 21.44 s  ClockTime = 22 s

Time = 15

smoothSolver:  Solving for Ux, Initial residual = 0.0689058, Final residual = 0.00679454, No Iterations 2
smoothSolver:  Solving for Uy, Initial residual = 0.165085, Final residual = 0.00836893, No Iterations 3
GAMG:  Solving for p, Initial residual = 0.0893099, Final residual = 0.00705851, No Iterations 22
time step continuity errors : sum local = 0.00342442, global = -0.000267716, cumulative = -0.000954373
smoothSolver:  Solving for nuTilda, Initial residual = 0.0478178, Final residual = 0.00123801, No Iterations 2
bounding nuTilda, min: -4.4583e-11 max: 0.000105026 average: 6.15541e-07
ExecutionTime = 21.62 s  ClockTime = 22 s

Time = 16

smoothSolver:  Solving for Ux, Initial residual = 0.0752585, Final residual = 0.00745871, No Iterations 2
smoothSolver:  Solving for Uy, Initial residual = 0.158819, Final residual = 0.00846025, No Iterations 3
GAMG:  Solving for p, Initial residual = 0.0969234, Final residual = 0.0095138, No Iterations 18
time step continuity errors : sum local = 0.00477989, global = 7.88109e-05, cumulative = -0.000875562
smoothSolver:  Solving for nuTilda, Initial residual = 0.0475426, Final residual = 0.00129978, No Iterations 2
bounding nuTilda, min: -4.5604e-10 max: 0.000124528 average: 7.41651e-07
ExecutionTime = 21.78 s  ClockTime = 22 s

Time = 17

smoothSolver:  Solving for Ux, Initial residual = 0.0786331, Final residual = 0.00786099, No Iterations 2
smoothSolver:  Solving for Uy, Initial residual = 0.158482, Final residual = 0.00873511, No Iterations 3
GAMG:  Solving for p, Initial residual = 0.0972058, Final residual = 0.00954627, No Iterations 26
time step continuity errors : sum local = 0.00538743, global = 0.000877014, cumulative = 1.45142e-06
smoothSolver:  Solving for nuTilda, Initial residual = 0.0475502, Final residual = 0.00136165, No Iterations 2
bounding nuTilda, min: -6.11445e-10 max: 0.000145882 average: 8.9758e-07
ExecutionTime = 21.98 s  ClockTime = 22 s

Time = 18

smoothSolver:  Solving for Ux, Initial residual = 0.0818494, Final residual = 0.00812561, No Iterations 2
smoothSolver:  Solving for Uy, Initial residual = 0.161519, Final residual = 0.00862003, No Iterations 3
GAMG:  Solving for p, Initial residual = 0.0993027, Final residual = 0.00968894, No Iterations 26
time step continuity errors : sum local = 0.00593119, global = 0.00101225, cumulative = 0.0010137
smoothSolver:  Solving for nuTilda, Initial residual = 0.0475431, Final residual = 0.0014279, No Iterations 2
bounding nuTilda, min: -2.7159e-11 max: 0.000172709 average: 1.08855e-06
ExecutionTime = 22.19 s  ClockTime = 23 s

Time = 19

smoothSolver:  Solving for Ux, Initial residual = 0.0847762, Final residual = 0.0040446, No Iterations 3
smoothSolver:  Solving for Uy, Initial residual = 0.165646, Final residual = 0.00862874, No Iterations 3
GAMG:  Solving for p, Initial residual = 0.10096, Final residual = 0.00992389, No Iterations 30
time step continuity errors : sum local = 0.00677956, global = 0.00119108, cumulative = 0.00220478
smoothSolver:  Solving for nuTilda, Initial residual = 0.046849, Final residual = 0.00144136, No Iterations 2
bounding nuTilda, min: -1.70731e-10 max: 0.000203143 average: 1.32054e-06
ExecutionTime = 22.4 s  ClockTime = 23 s

Time = 20

smoothSolver:  Solving for Ux, Initial residual = 0.0846273, Final residual = 0.00841468, No Iterations 2
smoothSolver:  Solving for Uy, Initial residual = 0.166837, Final residual = 0.00834832, No Iterations 3
GAMG:  Solving for p, Initial residual = 0.0952273, Final residual = 0.00925649, No Iterations 30
time step continuity errors : sum local = 0.00700824, global = 0.0012677, cumulative = 0.00347248
smoothSolver:  Solving for nuTilda, Initial residual = 0.0461614, Final residual = 0.00145517, No Iterations 2
bounding nuTilda, min: -5.99464e-10 max: 0.000234352 average: 1.60079e-06
ExecutionTime = 22.61 s  ClockTime = 23 s

Time = 21

smoothSolver:  Solving for Ux, Initial residual = 0.0866653, Final residual = 0.00823827, No Iterations 2
smoothSolver:  Solving for Uy, Initial residual = 0.161619, Final residual = 0.0160594, No Iterations 2
GAMG:  Solving for p, Initial residual = 0.0978857, Final residual = 0.00939006, No Iterations 28
time step continuity errors : sum local = 0.00747136, global = 0.00130534, cumulative = 0.00477782
smoothSolver:  Solving for nuTilda, Initial residual = 0.0449305, Final residual = 0.00143152, No Iterations 2
bounding nuTilda, min: -5.10489e-10 max: 0.000265122 average: 1.93567e-06
ExecutionTime = 22.82 s  ClockTime = 23 s

Time = 22

smoothSolver:  Solving for Ux, Initial residual = 0.087869, Final residual = 0.00794132, No Iterations 2
smoothSolver:  Solving for Uy, Initial residual = 0.164382, Final residual = 0.0163548, No Iterations 2
GAMG:  Solving for p, Initial residual = 0.0971327, Final residual = 0.00928458, No Iterations 28
time step continuity errors : sum local = 0.00741506, global = 0.00120333, cumulative = 0.00598115
smoothSolver:  Solving for nuTilda, Initial residual = 0.0435644, Final residual = 0.00141547, No Iterations 2
bounding nuTilda, min: -1.239e-09 max: 0.000297664 average: 2.33082e-06
ExecutionTime = 23.03 s  ClockTime = 23 s

Time = 23

smoothSolver:  Solving for Ux, Initial residual = 0.0870074, Final residual = 0.0077326, No Iterations 2
smoothSolver:  Solving for Uy, Initial residual = 0.168845, Final residual = 0.00806098, No Iterations 3
GAMG:  Solving for p, Initial residual = 0.096288, Final residual = 0.00906343, No Iterations 28
time step continuity errors : sum local = 0.0073763, global = 0.00107573, cumulative = 0.00705688
smoothSolver:  Solving for nuTilda, Initial residual = 0.0419662, Final residual = 0.00139051, No Iterations 2
bounding nuTilda, min: -2.38275e-09 max: 0.00033184 average: 2.78443e-06
ExecutionTime = 23.24 s  ClockTime = 24 s

Time = 24

smoothSolver:  Solving for Ux, Initial residual = 0.0851231, Final residual = 0.00771251, No Iterations 2
smoothSolver:  Solving for Uy, Initial residual = 0.165857, Final residual = 0.00759137, No Iterations 3
GAMG:  Solving for p, Initial residual = 0.0954505, Final residual = 0.00917569, No Iterations 28
time step continuity errors : sum local = 0.00778204, global = 0.00101064, cumulative = 0.00806752
smoothSolver:  Solving for nuTilda, Initial residual = 0.0402186, Final residual = 0.00134196, No Iterations 2
bounding nuTilda, min: -9.81376e-09 max: 0.000365232 average: 3.28831e-06
ExecutionTime = 23.44 s  ClockTime = 24 s

Time = 25

smoothSolver:  Solving for Ux, Initial residual = 0.0842525, Final residual = 0.00796008, No Iterations 2
smoothSolver:  Solving for Uy, Initial residual = 0.154923, Final residual = 0.00709693, No Iterations 3
GAMG:  Solving for p, Initial residual = 0.0950418, Final residual = 0.00944129, No Iterations 30
time step continuity errors : sum local = 0.00804164, global = 0.000954261, cumulative = 0.00902178
smoothSolver:  Solving for nuTilda, Initial residual = 0.0386113, Final residual = 0.00129733, No Iterations 2
bounding nuTilda, min: -1.74755e-08 max: 0.000396279 average: 3.84106e-06
ExecutionTime = 23.66 s  ClockTime = 24 s

Time = 26

smoothSolver:  Solving for Ux, Initial residual = 0.0826116, Final residual = 0.00821639, No Iterations 2
smoothSolver:  Solving for Uy, Initial residual = 0.144184, Final residual = 0.00676942, No Iterations 3
GAMG:  Solving for p, Initial residual = 0.0932186, Final residual = 0.00930793, No Iterations 32
time step continuity errors : sum local = 0.00817417, global = 0.00091602, cumulative = 0.0099378
smoothSolver:  Solving for nuTilda, Initial residual = 0.0371651, Final residual = 0.00124349, No Iterations 2
bounding nuTilda, min: -7.04167e-08 max: 0.000429959 average: 4.44763e-06
ExecutionTime = 23.88 s  ClockTime = 24 s

Time = 27

smoothSolver:  Solving for Ux, Initial residual = 0.0821909, Final residual = 0.00420758, No Iterations 3
smoothSolver:  Solving for Uy, Initial residual = 0.134316, Final residual = 0.00681226, No Iterations 3
GAMG:  Solving for p, Initial residual = 0.0948003, Final residual = 0.00906241, No Iterations 34
time step continuity errors : sum local = 0.0084365, global = 0.000899523, cumulative = 0.0108373
smoothSolver:  Solving for nuTilda, Initial residual = 0.035779, Final residual = 0.00119817, No Iterations 2
bounding nuTilda, min: -1.1483e-07 max: 0.000462571 average: 5.12748e-06
ExecutionTime = 24.11 s  ClockTime = 24 s

Time = 28

smoothSolver:  Solving for Ux, Initial residual = 0.0825031, Final residual = 0.00435982, No Iterations 3
smoothSolver:  Solving for Uy, Initial residual = 0.130062, Final residual = 0.00730887, No Iterations 3
GAMG:  Solving for p, Initial residual = 0.0932532, Final residual = 0.00924578, No Iterations 30
time step continuity errors : sum local = 0.00936692, global = 0.000977952, cumulative = 0.0118153
smoothSolver:  Solving for nuTilda, Initial residual = 0.0340679, Final residual = 0.00113418, No Iterations 2
bounding nuTilda, min: -1.07122e-08 max: 0.000493411 average: 5.88313e-06
ExecutionTime = 24.32 s  ClockTime = 25 s

Time = 29

smoothSolver:  Solving for Ux, Initial residual = 0.0839974, Final residual = 0.00459595, No Iterations 3
smoothSolver:  Solving for Uy, Initial residual = 0.128156, Final residual = 0.00767739, No Iterations 3
GAMG:  Solving for p, Initial residual = 0.0959806, Final residual = 0.00952158, No Iterations 27
time step continuity errors : sum local = 0.0103109, global = 0.00108651, cumulative = 0.0129018
smoothSolver:  Solving for nuTilda, Initial residual = 0.0324606, Final residual = 0.00107805, No Iterations 2
bounding nuTilda, min: -2.77682e-08 max: 0.000522696 average: 6.66432e-06
ExecutionTime = 24.53 s  ClockTime = 25 s

Time = 30

smoothSolver:  Solving for Ux, Initial residual = 0.0841061, Final residual = 0.00463299, No Iterations 3
smoothSolver:  Solving for Uy, Initial residual = 0.128422, Final residual = 0.00776204, No Iterations 3
GAMG:  Solving for p, Initial residual = 0.0971896, Final residual = 0.00949387, No Iterations 28
time step continuity errors : sum local = 0.0106658, global = 0.00110735, cumulative = 0.0140091
smoothSolver:  Solving for nuTilda, Initial residual = 0.0308221, Final residual = 0.0010294, No Iterations 2
bounding nuTilda, min: -3.23397e-08 max: 0.00055067 average: 7.49424e-06
ExecutionTime = 24.74 s  ClockTime = 25 s

Time = 31

smoothSolver:  Solving for Ux, Initial residual = 0.0835304, Final residual = 0.00442352, No Iterations 3
smoothSolver:  Solving for Uy, Initial residual = 0.126888, Final residual = 0.00757319, No Iterations 3
GAMG:  Solving for p, Initial residual = 0.0978581, Final residual = 0.00972119, No Iterations 27
time step continuity errors : sum local = 0.0113893, global = -0.00121373, cumulative = 0.0127954
smoothSolver:  Solving for nuTilda, Initial residual = 0.0294987, Final residual = 0.000976121, No Iterations 2
bounding nuTilda, min: -5.19274e-09 max: 0.000577513 average: 8.34463e-06
ExecutionTime = 24.94 s  ClockTime = 25 s

Time = 32

smoothSolver:  Solving for Ux, Initial residual = 0.0825095, Final residual = 0.00422484, No Iterations 3
smoothSolver:  Solving for Uy, Initial residual = 0.130215, Final residual = 0.00770824, No Iterations 3
GAMG:  Solving for p, Initial residual = 0.104257, Final residual = 0.010186, No Iterations 23
time step continuity errors : sum local = 0.011289, global = 0.00111596, cumulative = 0.0139114
smoothSolver:  Solving for nuTilda, Initial residual = 0.0282768, Final residual = 0.000932352, No Iterations 2
bounding nuTilda, min: -9.64646e-09 max: 0.000605418 average: 9.20935e-06
ExecutionTime = 25.12 s  ClockTime = 25 s

Time = 33

smoothSolver:  Solving for Ux, Initial residual = 0.0816401, Final residual = 0.00409453, No Iterations 3
smoothSolver:  Solving for Uy, Initial residual = 0.134333, Final residual = 0.00793559, No Iterations 3
GAMG:  Solving for p, Initial residual = 0.0998932, Final residual = 0.00995379, No Iterations 25
time step continuity errors : sum local = 0.0118505, global = -0.00120942, cumulative = 0.012702
smoothSolver:  Solving for nuTilda, Initial residual = 0.0273097, Final residual = 0.000894187, No Iterations 2
bounding nuTilda, min: -3.95441e-08 max: 0.000635643 average: 1.00945e-05
ExecutionTime = 25.31 s  ClockTime = 26 s

Time = 34

smoothSolver:  Solving for Ux, Initial residual = 0.0831419, Final residual = 0.00418205, No Iterations 3
smoothSolver:  Solving for Uy, Initial residual = 0.139404, Final residual = 0.00831167, No Iterations 3
GAMG:  Solving for p, Initial residual = 0.107458, Final residual = 0.0104439, No Iterations 27
time step continuity errors : sum local = 0.0119142, global = -0.00120075, cumulative = 0.0115012
smoothSolver:  Solving for nuTilda, Initial residual = 0.0263593, Final residual = 0.000852324, No Iterations 2
bounding nuTilda, min: -2.50828e-08 max: 0.000664441 average: 1.10005e-05
ExecutionTime = 25.5 s  ClockTime = 26 s

Time = 35

smoothSolver:  Solving for Ux, Initial residual = 0.0860493, Final residual = 0.00445654, No Iterations 3
smoothSolver:  Solving for Uy, Initial residual = 0.144442, Final residual = 0.00902296, No Iterations 3
GAMG:  Solving for p, Initial residual = 0.117786, Final residual = 0.0117447, No Iterations 25
time step continuity errors : sum local = 0.0129639, global = -0.00130038, cumulative = 0.0102008
smoothSolver:  Solving for nuTilda, Initial residual = 0.0255225, Final residual = 0.00081994, No Iterations 2
bounding nuTilda, min: -7.40586e-09 max: 0.000691957 average: 1.19434e-05
ExecutionTime = 25.7 s  ClockTime = 26 s

Time = 36

smoothSolver:  Solving for Ux, Initial residual = 0.0902085, Final residual = 0.00473848, No Iterations 3
smoothSolver:  Solving for Uy, Initial residual = 0.151301, Final residual = 0.0100491, No Iterations 3
GAMG:  Solving for p, Initial residual = 0.1235, Final residual = 0.0120915, No Iterations 26
time step continuity errors : sum local = 0.0132482, global = -0.00132556, cumulative = 0.00887526
smoothSolver:  Solving for nuTilda, Initial residual = 0.024718, Final residual = 0.000789871, No Iterations 2
bounding nuTilda, min: -2.38662e-07 max: 0.000718339 average: 1.29074e-05
ExecutionTime = 25.91 s  ClockTime = 26 s

Time = 37

smoothSolver:  Solving for Ux, Initial residual = 0.095684, Final residual = 0.00499258, No Iterations 3
smoothSolver:  Solving for Uy, Initial residual = 0.162451, Final residual = 0.0105842, No Iterations 3
GAMG:  Solving for p, Initial residual = 0.133403, Final residual = 0.0126174, No Iterations 26
time step continuity errors : sum local = 0.013119, global = -0.00118226, cumulative = 0.007693
smoothSolver:  Solving for nuTilda, Initial residual = 0.0239996, Final residual = 0.000757983, No Iterations 2
bounding nuTilda, min: -7.65453e-08 max: 0.000743677 average: 1.39027e-05
ExecutionTime = 26.1 s  ClockTime = 26 s

Time = 38

smoothSolver:  Solving for Ux, Initial residual = 0.100768, Final residual = 0.00494521, No Iterations 3
smoothSolver:  Solving for Uy, Initial residual = 0.172403, Final residual = 0.010554, No Iterations 3
GAMG:  Solving for p, Initial residual = 0.143514, Final residual = 0.0139143, No Iterations 24
time step continuity errors : sum local = 0.0138035, global = -0.00109356, cumulative = 0.00659944
smoothSolver:  Solving for nuTilda, Initial residual = 0.0230248, Final residual = 0.00073115, No Iterations 2
bounding nuTilda, min: -1.35899e-07 max: 0.000768884 average: 1.49566e-05
ExecutionTime = 26.29 s  ClockTime = 27 s

Time = 39

smoothSolver:  Solving for Ux, Initial residual = 0.101295, Final residual = 0.0100608, No Iterations 2
smoothSolver:  Solving for Uy, Initial residual = 0.176879, Final residual = 0.0104866, No Iterations 3
GAMG:  Solving for p, Initial residual = 0.151911, Final residual = 0.0143638, No Iterations 26
time step continuity errors : sum local = 0.013065, global = -0.000947204, cumulative = 0.00565224
smoothSolver:  Solving for nuTilda, Initial residual = 0.022327, Final residual = 0.000709033, No Iterations 2
bounding nuTilda, min: -2.27331e-07 max: 0.000794972 average: 1.60848e-05
ExecutionTime = 26.48 s  ClockTime = 27 s

Time = 40

smoothSolver:  Solving for Ux, Initial residual = 0.10242, Final residual = 0.00480055, No Iterations 3
smoothSolver:  Solving for Uy, Initial residual = 0.177856, Final residual = 0.0102008, No Iterations 3
GAMG:  Solving for p, Initial residual = 0.163445, Final residual = 0.0161995, No Iterations 24
time step continuity errors : sum local = 0.0145258, global = -0.00103482, cumulative = 0.00461742
smoothSolver:  Solving for nuTilda, Initial residual = 0.0216993, Final residual = 0.000680781, No Iterations 2
bounding nuTilda, min: -1.99052e-08 max: 0.000825035 average: 1.72361e-05
ExecutionTime = 26.67 s  ClockTime = 27 s

Time = 41

smoothSolver:  Solving for Ux, Initial residual = 0.100503, Final residual = 0.00467722, No Iterations 3
smoothSolver:  Solving for Uy, Initial residual = 0.178975, Final residual = 0.010321, No Iterations 3
GAMG:  Solving for p, Initial residual = 0.171488, Final residual = 0.016255, No Iterations 26
time step continuity errors : sum local = 0.0143351, global = -0.000974795, cumulative = 0.00364263
smoothSolver:  Solving for nuTilda, Initial residual = 0.0208644, Final residual = 0.000655302, No Iterations 2
bounding nuTilda, min: -1.05146e-07 max: 0.000853778 average: 1.84865e-05
ExecutionTime = 26.87 s  ClockTime = 27 s

Time = 42

smoothSolver:  Solving for Ux, Initial residual = 0.101255, Final residual = 0.0100518, No Iterations 2
smoothSolver:  Solving for Uy, Initial residual = 0.176057, Final residual = 0.00999796, No Iterations 3
GAMG:  Solving for p, Initial residual = 0.173222, Final residual = 0.0169376, No Iterations 24
time step continuity errors : sum local = 0.0147942, global = -0.00098638, cumulative = 0.00265625
smoothSolver:  Solving for nuTilda, Initial residual = 0.0203552, Final residual = 0.000633526, No Iterations 2
bounding nuTilda, min: -2.38032e-07 max: 0.000881501 average: 1.98462e-05
ExecutionTime = 27.06 s  ClockTime = 27 s

Time = 43

smoothSolver:  Solving for Ux, Initial residual = 0.103371, Final residual = 0.00494846, No Iterations 3
smoothSolver:  Solving for Uy, Initial residual = 0.170489, Final residual = 0.00991406, No Iterations 3
GAMG:  Solving for p, Initial residual = 0.180427, Final residual = 0.0177161, No Iterations 20
time step continuity errors : sum local = 0.0151499, global = 0.00108633, cumulative = 0.00374258
smoothSolver:  Solving for nuTilda, Initial residual = 0.0199047, Final residual = 0.000610757, No Iterations 2
bounding nuTilda, min: -1.22114e-06 max: 0.000908171 average: 2.12873e-05
ExecutionTime = 27.23 s  ClockTime = 28 s

Time = 44

smoothSolver:  Solving for Ux, Initial residual = 0.107484, Final residual = 0.0106697, No Iterations 2
smoothSolver:  Solving for Uy, Initial residual = 0.172804, Final residual = 0.00997219, No Iterations 3
GAMG:  Solving for p, Initial residual = 0.179453, Final residual = 0.0175818, No Iterations 25
time step continuity errors : sum local = 0.0143836, global = -0.00116039, cumulative = 0.00258219
smoothSolver:  Solving for nuTilda, Initial residual = 0.0193566, Final residual = 0.000592714, No Iterations 2
bounding nuTilda, min: -5.69639e-08 max: 0.000933871 average: 2.28289e-05
ExecutionTime = 27.43 s  ClockTime = 28 s

Time = 45

smoothSolver:  Solving for Ux, Initial residual = 0.110726, Final residual = 0.0109809, No Iterations 2
smoothSolver:  Solving for Uy, Initial residual = 0.174803, Final residual = 0.00934819, No Iterations 3
GAMG:  Solving for p, Initial residual = 0.168675, Final residual = 0.016552, No Iterations 26
time step continuity errors : sum local = 0.0138328, global = 0.0014426, cumulative = 0.00402479
smoothSolver:  Solving for nuTilda, Initial residual = 0.0189099, Final residual = 0.000577097, No Iterations 2
bounding nuTilda, min: -8.07484e-10 max: 0.000958667 average: 2.44526e-05
ExecutionTime = 27.61 s  ClockTime = 28 s

Time = 46

smoothSolver:  Solving for Ux, Initial residual = 0.112196, Final residual = 0.0107304, No Iterations 2
smoothSolver:  Solving for Uy, Initial residual = 0.180796, Final residual = 0.00914066, No Iterations 3
GAMG:  Solving for p, Initial residual = 0.17419, Final residual = 0.0167281, No Iterations 28
time step continuity errors : sum local = 0.0130025, global = 0.00107945, cumulative = 0.00510423
smoothSolver:  Solving for nuTilda, Initial residual = 0.0185839, Final residual = 0.000562682, No Iterations 2
bounding nuTilda, min: -4.10296e-09 max: 0.00098479 average: 2.61439e-05
ExecutionTime = 27.82 s  ClockTime = 28 s

Time = 47

smoothSolver:  Solving for Ux, Initial residual = 0.111951, Final residual = 0.0105962, No Iterations 2
smoothSolver:  Solving for Uy, Initial residual = 0.194922, Final residual = 0.00958624, No Iterations 3
GAMG:  Solving for p, Initial residual = 0.172823, Final residual = 0.0172726, No Iterations 26
time step continuity errors : sum local = 0.0133217, global = 0.00106645, cumulative = 0.00617068
smoothSolver:  Solving for nuTilda, Initial residual = 0.0181495, Final residual = 0.000550859, No Iterations 2
bounding nuTilda, min: -7.85615e-09 max: 0.00101372 average: 2.79107e-05
ExecutionTime = 28.01 s  ClockTime = 28 s

Time = 48

smoothSolver:  Solving for Ux, Initial residual = 0.108327, Final residual = 0.0107648, No Iterations 2
smoothSolver:  Solving for Uy, Initial residual = 0.205882, Final residual = 0.0105617, No Iterations 3
GAMG:  Solving for p, Initial residual = 0.172425, Final residual = 0.0171605, No Iterations 26
time step continuity errors : sum local = 0.0129898, global = -0.00105324, cumulative = 0.00511744
smoothSolver:  Solving for nuTilda, Initial residual = 0.0178996, Final residual = 0.000539131, No Iterations 2
bounding nuTilda, min: -9.79526e-09 max: 0.00104144 average: 2.9786e-05
ExecutionTime = 28.22 s  ClockTime = 29 s

Time = 49

smoothSolver:  Solving for Ux, Initial residual = 0.102587, Final residual = 0.00516457, No Iterations 3
smoothSolver:  Solving for Uy, Initial residual = 0.207247, Final residual = 0.0113411, No Iterations 3
GAMG:  Solving for p, Initial residual = 0.17212, Final residual = 0.0171471, No Iterations 23
time step continuity errors : sum local = 0.0129158, global = 0.000950744, cumulative = 0.00606818
smoothSolver:  Solving for nuTilda, Initial residual = 0.0177192, Final residual = 0.000527543, No Iterations 2
bounding nuTilda, min: -2.82165e-08 max: 0.00106809 average: 3.18132e-05
ExecutionTime = 28.4 s  ClockTime = 29 s

Time = 50

smoothSolver:  Solving for Ux, Initial residual = 0.0941727, Final residual = 0.00509913, No Iterations 3
smoothSolver:  Solving for Uy, Initial residual = 0.209691, Final residual = 0.011952, No Iterations 3
GAMG:  Solving for p, Initial residual = 0.163763, Final residual = 0.0160371, No Iterations 30
time step continuity errors : sum local = 0.0122371, global = 0.0010572, cumulative = 0.00712538
smoothSolver:  Solving for nuTilda, Initial residual = 0.0175593, Final residual = 0.00052176, No Iterations 2
bounding nuTilda, min: -1.91922e-08 max: 0.00109611 average: 3.39918e-05
ExecutionTime = 28.61 s  ClockTime = 29 s

Time = 51

smoothSolver:  Solving for Ux, Initial residual = 0.0862247, Final residual = 0.00514203, No Iterations 3
smoothSolver:  Solving for Uy, Initial residual = 0.205374, Final residual = 0.0119757, No Iterations 3
GAMG:  Solving for p, Initial residual = 0.160805, Final residual = 0.0155643, No Iterations 30
time step continuity errors : sum local = 0.0117475, global = 0.00105515, cumulative = 0.00818053
smoothSolver:  Solving for nuTilda, Initial residual = 0.0175558, Final residual = 0.000515797, No Iterations 2
bounding nuTilda, min: -3.46721e-08 max: 0.00112637 average: 3.63256e-05
ExecutionTime = 28.83 s  ClockTime = 29 s

Time = 52

smoothSolver:  Solving for Ux, Initial residual = 0.0799837, Final residual = 0.00494522, No Iterations 3
smoothSolver:  Solving for Uy, Initial residual = 0.196962, Final residual = 0.0115053, No Iterations 3
GAMG:  Solving for p, Initial residual = 0.162305, Final residual = 0.0161339, No Iterations 29
time step continuity errors : sum local = 0.0117789, global = -0.00101188, cumulative = 0.00716865
smoothSolver:  Solving for nuTilda, Initial residual = 0.0174731, Final residual = 0.000515265, No Iterations 2
bounding nuTilda, min: -1.33559e-09 max: 0.00115513 average: 3.88756e-05
ExecutionTime = 29.04 s  ClockTime = 29 s

Time = 53

smoothSolver:  Solving for Ux, Initial residual = 0.0767893, Final residual = 0.00467253, No Iterations 3
smoothSolver:  Solving for Uy, Initial residual = 0.188684, Final residual = 0.0109005, No Iterations 3
GAMG:  Solving for p, Initial residual = 0.169847, Final residual = 0.0167886, No Iterations 20
time step continuity errors : sum local = 0.0118146, global = -0.00071811, cumulative = 0.00645054
smoothSolver:  Solving for nuTilda, Initial residual = 0.0177078, Final residual = 0.000522666, No Iterations 2
bounding nuTilda, min: -1.89061e-08 max: 0.00118238 average: 4.16527e-05
ExecutionTime = 29.22 s  ClockTime = 30 s

Time = 54

smoothSolver:  Solving for Ux, Initial residual = 0.0771354, Final residual = 0.00457926, No Iterations 3
smoothSolver:  Solving for Uy, Initial residual = 0.18221, Final residual = 0.0106367, No Iterations 3
GAMG:  Solving for p, Initial residual = 0.166914, Final residual = 0.016006, No Iterations 21
time step continuity errors : sum local = 0.0114522, global = 0.000752386, cumulative = 0.00720293
smoothSolver:  Solving for nuTilda, Initial residual = 0.0178523, Final residual = 0.000528862, No Iterations 2
bounding nuTilda, min: -3.70991e-09 max: 0.00120831 average: 4.46879e-05
ExecutionTime = 29.4 s  ClockTime = 30 s

Time = 55

smoothSolver:  Solving for Ux, Initial residual = 0.0785215, Final residual = 0.00459023, No Iterations 3
smoothSolver:  Solving for Uy, Initial residual = 0.179292, Final residual = 0.0107305, No Iterations 3
GAMG:  Solving for p, Initial residual = 0.158728, Final residual = 0.0153297, No Iterations 25
time step continuity errors : sum local = 0.0116227, global = 0.000971466, cumulative = 0.00817439
smoothSolver:  Solving for nuTilda, Initial residual = 0.0181264, Final residual = 0.000543796, No Iterations 2
bounding nuTilda, min: -5.59878e-09 max: 0.00123336 average: 4.8038e-05
ExecutionTime = 29.59 s  ClockTime = 30 s

Time = 56

smoothSolver:  Solving for Ux, Initial residual = 0.0794883, Final residual = 0.00451408, No Iterations 3
smoothSolver:  Solving for Uy, Initial residual = 0.179681, Final residual = 0.0113443, No Iterations 3
GAMG:  Solving for p, Initial residual = 0.17324, Final residual = 0.0172142, No Iterations 19
time step continuity errors : sum local = 0.011887, global = 0.000703187, cumulative = 0.00887758
smoothSolver:  Solving for nuTilda, Initial residual = 0.0184166, Final residual = 0.000560796, No Iterations 2
bounding nuTilda, min: -2.71569e-09 max: 0.00126683 average: 5.16736e-05
ExecutionTime = 29.75 s  ClockTime = 30 s

Time = 57

smoothSolver:  Solving for Ux, Initial residual = 0.0792117, Final residual = 0.00432989, No Iterations 3
smoothSolver:  Solving for Uy, Initial residual = 0.179878, Final residual = 0.0115418, No Iterations 3
GAMG:  Solving for p, Initial residual = 0.177851, Final residual = 0.0176318, No Iterations 24
time step continuity errors : sum local = 0.0114677, global = 0.000656153, cumulative = 0.00953373
smoothSolver:  Solving for nuTilda, Initial residual = 0.0187343, Final residual = 0.000579768, No Iterations 2
bounding nuTilda, min: -4.22019e-10 max: 0.00129851 average: 5.55867e-05
ExecutionTime = 29.93 s  ClockTime = 30 s

Time = 58

smoothSolver:  Solving for Ux, Initial residual = 0.0777912, Final residual = 0.00426638, No Iterations 3
smoothSolver:  Solving for Uy, Initial residual = 0.179193, Final residual = 0.0114806, No Iterations 3
GAMG:  Solving for p, Initial residual = 0.171858, Final residual = 0.0168744, No Iterations 28
time step continuity errors : sum local = 0.0109188, global = 0.00063236, cumulative = 0.0101661
smoothSolver:  Solving for nuTilda, Initial residual = 0.0190315, Final residual = 0.00060576, No Iterations 2
bounding nuTilda, min: -3.89795e-08 max: 0.00132936 average: 5.98188e-05
ExecutionTime = 30.13 s  ClockTime = 30 s

Time = 59

smoothSolver:  Solving for Ux, Initial residual = 0.0762444, Final residual = 0.0042476, No Iterations 3
smoothSolver:  Solving for Uy, Initial residual = 0.176172, Final residual = 0.0115507, No Iterations 3
GAMG:  Solving for p, Initial residual = 0.16176, Final residual = 0.0158706, No Iterations 30
time step continuity errors : sum local = 0.0104064, global = 0.000628047, cumulative = 0.0107941
smoothSolver:  Solving for nuTilda, Initial residual = 0.0193517, Final residual = 0.000632395, No Iterations 2
bounding nuTilda, min: -5.5674e-08 max: 0.00135901 average: 6.43492e-05
ExecutionTime = 30.34 s  ClockTime = 31 s

Time = 60

smoothSolver:  Solving for Ux, Initial residual = 0.0741184, Final residual = 0.00423606, No Iterations 3
smoothSolver:  Solving for Uy, Initial residual = 0.173815, Final residual = 0.011809, No Iterations 3
GAMG:  Solving for p, Initial residual = 0.161381, Final residual = 0.016126, No Iterations 30
time step continuity errors : sum local = 0.0101906, global = 0.000641407, cumulative = 0.0114355
smoothSolver:  Solving for nuTilda, Initial residual = 0.0196096, Final residual = 0.000640259, No Iterations 2
bounding nuTilda, min: -2.11681e-08 max: 0.00138824 average: 6.91145e-05
ExecutionTime = 30.56 s  ClockTime = 31 s

Time = 61

smoothSolver:  Solving for Ux, Initial residual = 0.0712294, Final residual = 0.00429104, No Iterations 3
smoothSolver:  Solving for Uy, Initial residual = 0.172156, Final residual = 0.0120518, No Iterations 3
GAMG:  Solving for p, Initial residual = 0.155104, Final residual = 0.0150896, No Iterations 28
time step continuity errors : sum local = 0.00978667, global = -0.000604065, cumulative = 0.0108315
smoothSolver:  Solving for nuTilda, Initial residual = 0.0198138, Final residual = 0.00065824, No Iterations 2
bounding nuTilda, min: -1.89149e-09 max: 0.00141555 average: 7.41852e-05
ExecutionTime = 30.76 s  ClockTime = 31 s

Time = 62

smoothSolver:  Solving for Ux, Initial residual = 0.0704516, Final residual = 0.00448378, No Iterations 3
smoothSolver:  Solving for Uy, Initial residual = 0.172376, Final residual = 0.0117655, No Iterations 3
GAMG:  Solving for p, Initial residual = 0.151264, Final residual = 0.0146729, No Iterations 33
time step continuity errors : sum local = 0.00952435, global = -0.000625892, cumulative = 0.0102056
smoothSolver:  Solving for nuTilda, Initial residual = 0.019929, Final residual = 0.000669865, No Iterations 2
bounding nuTilda, min: -1.91089e-09 max: 0.00144721 average: 7.95325e-05
ExecutionTime = 30.99 s  ClockTime = 31 s

Time = 63

smoothSolver:  Solving for Ux, Initial residual = 0.0695686, Final residual = 0.0044995, No Iterations 3
smoothSolver:  Solving for Uy, Initial residual = 0.171027, Final residual = 0.0115111, No Iterations 3
GAMG:  Solving for p, Initial residual = 0.149892, Final residual = 0.0147573, No Iterations 32
time step continuity errors : sum local = 0.0094632, global = -0.00061155, cumulative = 0.00959404
smoothSolver:  Solving for nuTilda, Initial residual = 0.0199775, Final residual = 0.000679808, No Iterations 2
bounding nuTilda, min: -1.24579e-10 max: 0.0014801 average: 8.51079e-05
ExecutionTime = 31.21 s  ClockTime = 32 s

Time = 64

smoothSolver:  Solving for Ux, Initial residual = 0.0677996, Final residual = 0.004465, No Iterations 3
smoothSolver:  Solving for Uy, Initial residual = 0.171545, Final residual = 0.011319, No Iterations 3
GAMG:  Solving for p, Initial residual = 0.152831, Final residual = 0.0146216, No Iterations 32
time step continuity errors : sum local = 0.00899646, global = -0.000586936, cumulative = 0.0090071
smoothSolver:  Solving for nuTilda, Initial residual = 0.019933, Final residual = 0.000671346, No Iterations 2
bounding nuTilda, min: -2.47832e-08 max: 0.00151164 average: 9.08727e-05
ExecutionTime = 31.43 s  ClockTime = 32 s

Time = 65

smoothSolver:  Solving for Ux, Initial residual = 0.0671413, Final residual = 0.00438088, No Iterations 3
smoothSolver:  Solving for Uy, Initial residual = 0.173814, Final residual = 0.0109563, No Iterations 3
GAMG:  Solving for p, Initial residual = 0.14847, Final residual = 0.0145198, No Iterations 30
time step continuity errors : sum local = 0.0093224, global = -0.000712081, cumulative = 0.00829502
smoothSolver:  Solving for nuTilda, Initial residual = 0.0198683, Final residual = 0.000676607, No Iterations 2
bounding nuTilda, min: -1.89962e-09 max: 0.00154258 average: 9.68387e-05
ExecutionTime = 31.65 s  ClockTime = 32 s

Time = 66

smoothSolver:  Solving for Ux, Initial residual = 0.0671777, Final residual = 0.00424039, No Iterations 3
smoothSolver:  Solving for Uy, Initial residual = 0.176326, Final residual = 0.0107177, No Iterations 3
GAMG:  Solving for p, Initial residual = 0.148004, Final residual = 0.0144717, No Iterations 30
time step continuity errors : sum local = 0.00939124, global = -0.000719306, cumulative = 0.00757572
smoothSolver:  Solving for nuTilda, Initial residual = 0.0197655, Final residual = 0.000672192, No Iterations 2
bounding nuTilda, min: -6.18705e-09 max: 0.00157233 average: 0.000102955
ExecutionTime = 31.86 s  ClockTime = 32 s

Time = 67

smoothSolver:  Solving for Ux, Initial residual = 0.0668661, Final residual = 0.00408416, No Iterations 3
smoothSolver:  Solving for Uy, Initial residual = 0.179384, Final residual = 0.0105648, No Iterations 3
GAMG:  Solving for p, Initial residual = 0.1488, Final residual = 0.0139667, No Iterations 31
time step continuity errors : sum local = 0.00878878, global = 0.000599506, cumulative = 0.00817522
smoothSolver:  Solving for nuTilda, Initial residual = 0.0195838, Final residual = 0.000663451, No Iterations 2
bounding nuTilda, min: -1.53732e-10 max: 0.00160414 average: 0.000109236
ExecutionTime = 32.09 s  ClockTime = 32 s

Time = 68

smoothSolver:  Solving for Ux, Initial residual = 0.0661222, Final residual = 0.00389528, No Iterations 3
smoothSolver:  Solving for Uy, Initial residual = 0.182655, Final residual = 0.0103465, No Iterations 3
GAMG:  Solving for p, Initial residual = 0.159191, Final residual = 0.0149801, No Iterations 29
time step continuity errors : sum local = 0.00913849, global = 0.000555818, cumulative = 0.00873104
smoothSolver:  Solving for nuTilda, Initial residual = 0.0193724, Final residual = 0.000651655, No Iterations 2
bounding nuTilda, min: -1.31044e-09 max: 0.00163888 average: 0.000115691
ExecutionTime = 32.29 s  ClockTime = 33 s

Time = 69

smoothSolver:  Solving for Ux, Initial residual = 0.0651533, Final residual = 0.00373097, No Iterations 3
smoothSolver:  Solving for Uy, Initial residual = 0.184942, Final residual = 0.0103414, No Iterations 3
GAMG:  Solving for p, Initial residual = 0.1627, Final residual = 0.0153165, No Iterations 29
time step continuity errors : sum local = 0.00909131, global = 0.000512459, cumulative = 0.0092435
smoothSolver:  Solving for nuTilda, Initial residual = 0.0191246, Final residual = 0.000640928, No Iterations 2
bounding nuTilda, min: -3.90848e-09 max: 0.00167164 average: 0.000122261
ExecutionTime = 32.5 s  ClockTime = 33 s

Time = 70

smoothSolver:  Solving for Ux, Initial residual = 0.0637028, Final residual = 0.00367305, No Iterations 3
smoothSolver:  Solving for Uy, Initial residual = 0.184234, Final residual = 0.0105853, No Iterations 3
GAMG:  Solving for p, Initial residual = 0.154644, Final residual = 0.0145761, No Iterations 30
time step continuity errors : sum local = 0.0091947, global = 0.000553035, cumulative = 0.00979653
smoothSolver:  Solving for nuTilda, Initial residual = 0.0188675, Final residual = 0.000632433, No Iterations 2
bounding nuTilda, min: -1.33952e-08 max: 0.00170376 average: 0.000128968
ExecutionTime = 32.71 s  ClockTime = 33 s

Time = 71

smoothSolver:  Solving for Ux, Initial residual = 0.0632907, Final residual = 0.00366733, No Iterations 3
smoothSolver:  Solving for Uy, Initial residual = 0.182723, Final residual = 0.010607, No Iterations 3
GAMG:  Solving for p, Initial residual = 0.14592, Final residual = 0.014046, No Iterations 30
time step continuity errors : sum local = 0.00937958, global = 0.000636606, cumulative = 0.0104331
smoothSolver:  Solving for nuTilda, Initial residual = 0.0185482, Final residual = 0.000619862, No Iterations 2
bounding nuTilda, min: -1.24251e-10 max: 0.00173667 average: 0.000135799
ExecutionTime = 32.93 s  ClockTime = 33 s

Time = 72

smoothSolver:  Solving for Ux, Initial residual = 0.0642037, Final residual = 0.00365755, No Iterations 3
smoothSolver:  Solving for Uy, Initial residual = 0.181317, Final residual = 0.0103598, No Iterations 3
GAMG:  Solving for p, Initial residual = 0.140533, Final residual = 0.0139441, No Iterations 31
time step continuity errors : sum local = 0.00952274, global = -0.000697159, cumulative = 0.00973598
smoothSolver:  Solving for nuTilda, Initial residual = 0.0182161, Final residual = 0.000608401, No Iterations 2
bounding nuTilda, min: -1.94201e-08 max: 0.00177651 average: 0.000142766
ExecutionTime = 33.15 s  ClockTime = 34 s

Time = 73

smoothSolver:  Solving for Ux, Initial residual = 0.0664651, Final residual = 0.00362566, No Iterations 3
smoothSolver:  Solving for Uy, Initial residual = 0.179643, Final residual = 0.0100317, No Iterations 3
GAMG:  Solving for p, Initial residual = 0.144379, Final residual = 0.0140532, No Iterations 26
time step continuity errors : sum local = 0.00947436, global = -0.000686891, cumulative = 0.00904909
smoothSolver:  Solving for nuTilda, Initial residual = 0.017863, Final residual = 0.000600221, No Iterations 2
bounding nuTilda, min: -5.84039e-10 max: 0.0018158 average: 0.000149833
ExecutionTime = 33.35 s  ClockTime = 34 s

Time = 74

smoothSolver:  Solving for Ux, Initial residual = 0.065665, Final residual = 0.00368325, No Iterations 3
smoothSolver:  Solving for Uy, Initial residual = 0.175504, Final residual = 0.00977046, No Iterations 3
GAMG:  Solving for p, Initial residual = 0.141622, Final residual = 0.0141376, No Iterations 29
time step continuity errors : sum local = 0.00968994, global = -0.000728824, cumulative = 0.00832027
smoothSolver:  Solving for nuTilda, Initial residual = 0.0174357, Final residual = 0.000570506, No Iterations 2
bounding nuTilda, min: -1.428e-09 max: 0.00185319 average: 0.000156952
ExecutionTime = 33.55 s  ClockTime = 34 s

Time = 75

smoothSolver:  Solving for Ux, Initial residual = 0.0642686, Final residual = 0.00377812, No Iterations 3
smoothSolver:  Solving for Uy, Initial residual = 0.177773, Final residual = 0.00990018, No Iterations 3
GAMG:  Solving for p, Initial residual = 0.139225, Final residual = 0.0131821, No Iterations 32
time step continuity errors : sum local = 0.0091942, global = -0.000709612, cumulative = 0.00761065
smoothSolver:  Solving for nuTilda, Initial residual = 0.0170485, Final residual = 0.000553761, No Iterations 2
bounding nuTilda, min: -6.31062e-10 max: 0.00188932 average: 0.000164211
ExecutionTime = 33.77 s  ClockTime = 34 s

Time = 76

smoothSolver:  Solving for Ux, Initial residual = 0.06316, Final residual = 0.00378642, No Iterations 3
smoothSolver:  Solving for Uy, Initial residual = 0.182422, Final residual = 0.010195, No Iterations 3
GAMG:  Solving for p, Initial residual = 0.157979, Final residual = 0.0150685, No Iterations 30
time step continuity errors : sum local = 0.00945749, global = -0.000598188, cumulative = 0.00701247
smoothSolver:  Solving for nuTilda, Initial residual = 0.0166489, Final residual = 0.000534969, No Iterations 2
bounding nuTilda, min: -1.38117e-10 max: 0.00192448 average: 0.000171578
ExecutionTime = 33.99 s  ClockTime = 34 s

Time = 77

smoothSolver:  Solving for Ux, Initial residual = 0.0620425, Final residual = 0.00373463, No Iterations 3
smoothSolver:  Solving for Uy, Initial residual = 0.185012, Final residual = 0.0102966, No Iterations 3
GAMG:  Solving for p, Initial residual = 0.161583, Final residual = 0.016026, No Iterations 30
time step continuity errors : sum local = 0.00956251, global = -0.00059207, cumulative = 0.0064204
smoothSolver:  Solving for nuTilda, Initial residual = 0.0163102, Final residual = 0.000527378, No Iterations 2
bounding nuTilda, min: -8.21288e-10 max: 0.00195757 average: 0.00017909
ExecutionTime = 34.21 s  ClockTime = 35 s

Time = 78

smoothSolver:  Solving for Ux, Initial residual = 0.0607836, Final residual = 0.00362767, No Iterations 3
smoothSolver:  Solving for Uy, Initial residual = 0.187014, Final residual = 0.0100638, No Iterations 3
GAMG:  Solving for p, Initial residual = 0.171293, Final residual = 0.0163831, No Iterations 30
time step continuity errors : sum local = 0.00920631, global = -0.000577076, cumulative = 0.00584332
smoothSolver:  Solving for nuTilda, Initial residual = 0.0159391, Final residual = 0.000509444, No Iterations 2
bounding nuTilda, min: -7.91401e-11 max: 0.00199024 average: 0.000186633
ExecutionTime = 34.42 s  ClockTime = 35 s

Time = 79

smoothSolver:  Solving for Ux, Initial residual = 0.0598566, Final residual = 0.00349032, No Iterations 3
smoothSolver:  Solving for Uy, Initial residual = 0.187175, Final residual = 0.00940453, No Iterations 3
GAMG:  Solving for p, Initial residual = 0.172005, Final residual = 0.0168495, No Iterations 21
time step continuity errors : sum local = 0.00875176, global = 0.000607667, cumulative = 0.00645099
smoothSolver:  Solving for nuTilda, Initial residual = 0.0156142, Final residual = 0.000494333, No Iterations 2
bounding nuTilda, min: -5.43354e-09 max: 0.00202957 average: 0.000194161
ExecutionTime = 34.61 s  ClockTime = 35 s

Time = 80

smoothSolver:  Solving for Ux, Initial residual = 0.0567152, Final residual = 0.00331038, No Iterations 3
smoothSolver:  Solving for Uy, Initial residual = 0.18473, Final residual = 0.00883545, No Iterations 3
GAMG:  Solving for p, Initial residual = 0.171154, Final residual = 0.0162441, No Iterations 30
time step continuity errors : sum local = 0.00809546, global = 0.000695969, cumulative = 0.00714696
smoothSolver:  Solving for nuTilda, Initial residual = 0.0152151, Final residual = 0.000473283, No Iterations 2
bounding nuTilda, min: -2.83112e-11 max: 0.00206631 average: 0.000201737
ExecutionTime = 34.82 s  ClockTime = 35 s

Time = 81

smoothSolver:  Solving for Ux, Initial residual = 0.0549301, Final residual = 0.00314141, No Iterations 3
smoothSolver:  Solving for Uy, Initial residual = 0.182818, Final residual = 0.0178832, No Iterations 2
GAMG:  Solving for p, Initial residual = 0.169587, Final residual = 0.016127, No Iterations 30
time step continuity errors : sum local = 0.00814191, global = 0.000696883, cumulative = 0.00784384
smoothSolver:  Solving for nuTilda, Initial residual = 0.014851, Final residual = 0.00046612, No Iterations 2
bounding nuTilda, min: -1.52986e-10 max: 0.00210193 average: 0.000209462
ExecutionTime = 35.04 s  ClockTime = 35 s

Time = 82

smoothSolver:  Solving for Ux, Initial residual = 0.0549328, Final residual = 0.00300124, No Iterations 3
smoothSolver:  Solving for Uy, Initial residual = 0.182217, Final residual = 0.0091936, No Iterations 3
GAMG:  Solving for p, Initial residual = 0.178309, Final residual = 0.0169522, No Iterations 30
time step continuity errors : sum local = 0.00835883, global = 0.000718398, cumulative = 0.00856224
smoothSolver:  Solving for nuTilda, Initial residual = 0.0144656, Final residual = 0.000454189, No Iterations 2
bounding nuTilda, min: -3.90647e-10 max: 0.00213564 average: 0.000217294
ExecutionTime = 35.26 s  ClockTime = 36 s

Time = 83

smoothSolver:  Solving for Ux, Initial residual = 0.0527327, Final residual = 0.00294563, No Iterations 3
smoothSolver:  Solving for Uy, Initial residual = 0.177566, Final residual = 0.0175594, No Iterations 2
GAMG:  Solving for p, Initial residual = 0.170807, Final residual = 0.0159984, No Iterations 30
time step continuity errors : sum local = 0.0082358, global = 0.000697724, cumulative = 0.00925996
smoothSolver:  Solving for nuTilda, Initial residual = 0.0140234, Final residual = 0.000438279, No Iterations 2
bounding nuTilda, min: -1.1464e-10 max: 0.00216727 average: 0.000225181
ExecutionTime = 35.47 s  ClockTime = 36 s

Time = 84

smoothSolver:  Solving for Ux, Initial residual = 0.0528696, Final residual = 0.00289889, No Iterations 3
smoothSolver:  Solving for Uy, Initial residual = 0.174784, Final residual = 0.00912579, No Iterations 3
GAMG:  Solving for p, Initial residual = 0.170603, Final residual = 0.0160969, No Iterations 30
time step continuity errors : sum local = 0.00827352, global = 0.000696688, cumulative = 0.00995665
smoothSolver:  Solving for nuTilda, Initial residual = 0.0136555, Final residual = 0.000431557, No Iterations 2
bounding nuTilda, min: -7.322e-11 max: 0.00219848 average: 0.000233072
ExecutionTime = 35.69 s  ClockTime = 36 s

Time = 85

smoothSolver:  Solving for Ux, Initial residual = 0.0529504, Final residual = 0.00295422, No Iterations 3
smoothSolver:  Solving for Uy, Initial residual = 0.171936, Final residual = 0.00858822, No Iterations 3
GAMG:  Solving for p, Initial residual = 0.173582, Final residual = 0.0170641, No Iterations 28
time step continuity errors : sum local = 0.00850423, global = 0.000717311, cumulative = 0.010674
smoothSolver:  Solving for nuTilda, Initial residual = 0.0132125, Final residual = 0.000412729, No Iterations 2
bounding nuTilda, min: -1.18114e-10 max: 0.00227656 average: 0.000240857
ExecutionTime = 35.89 s  ClockTime = 36 s

Time = 86

smoothSolver:  Solving for Ux, Initial residual = 0.0529091, Final residual = 0.00303882, No Iterations 3
smoothSolver:  Solving for Uy, Initial residual = 0.170121, Final residual = 0.00889713, No Iterations 3
GAMG:  Solving for p, Initial residual = 0.178297, Final residual = 0.0172966, No Iterations 30
time step continuity errors : sum local = 0.00820331, global = 0.000707061, cumulative = 0.011381
smoothSolver:  Solving for nuTilda, Initial residual = 0.0128521, Final residual = 0.000406156, No Iterations 2
bounding nuTilda, min: -5.60831e-11 max: 0.0023581 average: 0.000248678
ExecutionTime = 36.1 s  ClockTime = 36 s

Time = 87

smoothSolver:  Solving for Ux, Initial residual = 0.0538701, Final residual = 0.00321144, No Iterations 3
smoothSolver:  Solving for Uy, Initial residual = 0.172455, Final residual = 0.00951952, No Iterations 3
GAMG:  Solving for p, Initial residual = 0.186928, Final residual = 0.0180218, No Iterations 28
time step continuity errors : sum local = 0.00820792, global = -0.000686054, cumulative = 0.010695
smoothSolver:  Solving for nuTilda, Initial residual = 0.0124644, Final residual = 0.000389713, No Iterations 2
bounding nuTilda, min: -1.92109e-09 max: 0.002442 average: 0.000256392
ExecutionTime = 36.3 s  ClockTime = 37 s

Time = 88

smoothSolver:  Solving for Ux, Initial residual = 0.0545422, Final residual = 0.00335921, No Iterations 3
smoothSolver:  Solving for Uy, Initial residual = 0.173022, Final residual = 0.0100595, No Iterations 3
GAMG:  Solving for p, Initial residual = 0.185342, Final residual = 0.0183466, No Iterations 31
time step continuity errors : sum local = 0.00840196, global = -0.000671739, cumulative = 0.0100232
smoothSolver:  Solving for nuTilda, Initial residual = 0.0121129, Final residual = 0.00037502, No Iterations 2
bounding nuTilda, min: -3.07592e-10 max: 0.00252386 average: 0.000264017
ExecutionTime = 36.52 s  ClockTime = 37 s

Time = 89

smoothSolver:  Solving for Ux, Initial residual = 0.0549475, Final residual = 0.00343256, No Iterations 3
smoothSolver:  Solving for Uy, Initial residual = 0.173756, Final residual = 0.0104404, No Iterations 3
GAMG:  Solving for p, Initial residual = 0.18148, Final residual = 0.0178966, No Iterations 32
time step continuity errors : sum local = 0.00861711, global = -0.000699678, cumulative = 0.00932355
smoothSolver:  Solving for nuTilda, Initial residual = 0.0117895, Final residual = 0.000362008, No Iterations 2
bounding nuTilda, min: -3.97747e-09 max: 0.00260291 average: 0.000271577
ExecutionTime = 36.75 s  ClockTime = 37 s

Time = 90

smoothSolver:  Solving for Ux, Initial residual = 0.0555471, Final residual = 0.00342543, No Iterations 3
smoothSolver:  Solving for Uy, Initial residual = 0.175132, Final residual = 0.0105288, No Iterations 3
GAMG:  Solving for p, Initial residual = 0.174356, Final residual = 0.0173129, No Iterations 32
time step continuity errors : sum local = 0.00853792, global = -0.000695261, cumulative = 0.00862829
smoothSolver:  Solving for nuTilda, Initial residual = 0.0114802, Final residual = 0.000352028, No Iterations 2
bounding nuTilda, min: -6.15548e-10 max: 0.00268639 average: 0.000279086
ExecutionTime = 36.98 s  ClockTime = 37 s

Time = 91

smoothSolver:  Solving for Ux, Initial residual = 0.0561617, Final residual = 0.00341557, No Iterations 3
smoothSolver:  Solving for Uy, Initial residual = 0.17758, Final residual = 0.0103396, No Iterations 3
GAMG:  Solving for p, Initial residual = 0.174902, Final residual = 0.0167907, No Iterations 32
time step continuity errors : sum local = 0.00806118, global = -0.000645202, cumulative = 0.00798309
smoothSolver:  Solving for nuTilda, Initial residual = 0.0111822, Final residual = 0.000344677, No Iterations 2
bounding nuTilda, min: -1.35655e-11 max: 0.00275976 average: 0.000286579
ExecutionTime = 37.2 s  ClockTime = 38 s

Time = 92

smoothSolver:  Solving for Ux, Initial residual = 0.0558714, Final residual = 0.00335402, No Iterations 3
smoothSolver:  Solving for Uy, Initial residual = 0.181002, Final residual = 0.0102613, No Iterations 3
GAMG:  Solving for p, Initial residual = 0.176576, Final residual = 0.0175667, No Iterations 31
time step continuity errors : sum local = 0.00821535, global = 0.00064876, cumulative = 0.00863185
smoothSolver:  Solving for nuTilda, Initial residual = 0.0108704, Final residual = 0.000335414, No Iterations 2
bounding nuTilda, min: -8.73969e-10 max: 0.00283675 average: 0.00029402
ExecutionTime = 37.43 s  ClockTime = 38 s

Time = 93

smoothSolver:  Solving for Ux, Initial residual = 0.0548366, Final residual = 0.00328421, No Iterations 3
smoothSolver:  Solving for Uy, Initial residual = 0.18314, Final residual = 0.0102477, No Iterations 3
GAMG:  Solving for p, Initial residual = 0.178006, Final residual = 0.0177382, No Iterations 25
time step continuity errors : sum local = 0.00819362, global = 0.000621794, cumulative = 0.00925364
smoothSolver:  Solving for nuTilda, Initial residual = 0.0105702, Final residual = 0.00032599, No Iterations 2
bounding nuTilda, min: -4.41737e-09 max: 0.00290679 average: 0.000301421
ExecutionTime = 37.63 s  ClockTime = 38 s

Time = 94

smoothSolver:  Solving for Ux, Initial residual = 0.0527949, Final residual = 0.00320906, No Iterations 3
smoothSolver:  Solving for Uy, Initial residual = 0.185259, Final residual = 0.0102119, No Iterations 3
GAMG:  Solving for p, Initial residual = 0.176131, Final residual = 0.0167626, No Iterations 32
time step continuity errors : sum local = 0.00763486, global = 0.00058111, cumulative = 0.00983475
smoothSolver:  Solving for nuTilda, Initial residual = 0.010284, Final residual = 0.000319323, No Iterations 2
bounding nuTilda, min: -1.24436e-10 max: 0.00297967 average: 0.00030887
ExecutionTime = 37.86 s  ClockTime = 38 s

Time = 95

smoothSolver:  Solving for Ux, Initial residual = 0.0496712, Final residual = 0.00309137, No Iterations 3
smoothSolver:  Solving for Uy, Initial residual = 0.185906, Final residual = 0.0103347, No Iterations 3
GAMG:  Solving for p, Initial residual = 0.17943, Final residual = 0.0169613, No Iterations 32
time step continuity errors : sum local = 0.00751799, global = 0.000557786, cumulative = 0.0103925
smoothSolver:  Solving for nuTilda, Initial residual = 0.00998262, Final residual = 0.000307314, No Iterations 2
bounding nuTilda, min: -1.52791e-09 max: 0.00304698 average: 0.000316313
ExecutionTime = 38.08 s  ClockTime = 38 s

Time = 96

smoothSolver:  Solving for Ux, Initial residual = 0.0476787, Final residual = 0.00300972, No Iterations 3
smoothSolver:  Solving for Uy, Initial residual = 0.183554, Final residual = 0.0101158, No Iterations 3
GAMG:  Solving for p, Initial residual = 0.184562, Final residual = 0.0176748, No Iterations 32
time step continuity errors : sum local = 0.00764773, global = 0.00060545, cumulative = 0.010998
smoothSolver:  Solving for nuTilda, Initial residual = 0.00969995, Final residual = 0.000297365, No Iterations 2
ExecutionTime = 38.31 s  ClockTime = 39 s

Time = 97

smoothSolver:  Solving for Ux, Initial residual = 0.0445604, Final residual = 0.00299144, No Iterations 3
smoothSolver:  Solving for Uy, Initial residual = 0.179684, Final residual = 0.0100449, No Iterations 3
GAMG:  Solving for p, Initial residual = 0.187276, Final residual = 0.0184979, No Iterations 33
time step continuity errors : sum local = 0.0079602, global = -0.000663971, cumulative = 0.010334
smoothSolver:  Solving for nuTilda, Initial residual = 0.00942761, Final residual = 0.000287883, No Iterations 2
bounding nuTilda, min: -1.08438e-08 max: 0.00318252 average: 0.000331317
ExecutionTime = 38.54 s  ClockTime = 39 s

Time = 98

smoothSolver:  Solving for Ux, Initial residual = 0.0430111, Final residual = 0.00294243, No Iterations 3
smoothSolver:  Solving for Uy, Initial residual = 0.173786, Final residual = 0.00974105, No Iterations 3
GAMG:  Solving for p, Initial residual = 0.190524, Final residual = 0.0184977, No Iterations 34
time step continuity errors : sum local = 0.00750618, global = 0.000620595, cumulative = 0.0109546
smoothSolver:  Solving for nuTilda, Initial residual = 0.00914587, Final residual = 0.000276163, No Iterations 2
bounding nuTilda, min: -4.32099e-10 max: 0.00324952 average: 0.000338856
ExecutionTime = 38.75 s  ClockTime = 39 s

Time = 99

smoothSolver:  Solving for Ux, Initial residual = 0.0414184, Final residual = 0.00281101, No Iterations 3
smoothSolver:  Solving for Uy, Initial residual = 0.168334, Final residual = 0.00947861, No Iterations 3
GAMG:  Solving for p, Initial residual = 0.183738, Final residual = 0.0178528, No Iterations 34
time step continuity errors : sum local = 0.00736383, global = 0.000593051, cumulative = 0.0115477
smoothSolver:  Solving for nuTilda, Initial residual = 0.008914, Final residual = 0.000270202, No Iterations 2
bounding nuTilda, min: -2.81352e-10 max: 0.00331165 average: 0.000346383
ExecutionTime = 38.99 s  ClockTime = 39 s

Time = 100

smoothSolver:  Solving for Ux, Initial residual = 0.0402793, Final residual = 0.00267026, No Iterations 3
smoothSolver:  Solving for Uy, Initial residual = 0.164363, Final residual = 0.00923422, No Iterations 3
GAMG:  Solving for p, Initial residual = 0.173733, Final residual = 0.0171014, No Iterations 34
time step continuity errors : sum local = 0.00744651, global = 0.000594762, cumulative = 0.0121424
smoothSolver:  Solving for nuTilda, Initial residual = 0.00864055, Final residual = 0.00025739, No Iterations 2
ExecutionTime = 39.22 s  ClockTime = 40 s

Time = 101

smoothSolver:  Solving for Ux, Initial residual = 0.0395459, Final residual = 0.0025876, No Iterations 3
smoothSolver:  Solving for Uy, Initial residual = 0.164786, Final residual = 0.00916086, No Iterations 3
GAMG:  Solving for p, Initial residual = 0.162164, Final residual = 0.0154725, No Iterations 34
time step continuity errors : sum local = 0.00713205, global = 0.000633872, cumulative = 0.0127763
smoothSolver:  Solving for nuTilda, Initial residual = 0.00840419, Final residual = 0.000248924, No Iterations 2
bounding nuTilda, min: -1.57147e-09 max: 0.00342832 average: 0.000361314
ExecutionTime = 39.45 s  ClockTime = 40 s

Time = 102

smoothSolver:  Solving for Ux, Initial residual = 0.0388395, Final residual = 0.0024786, No Iterations 3
smoothSolver:  Solving for Uy, Initial residual = 0.163676, Final residual = 0.00880025, No Iterations 3
GAMG:  Solving for p, Initial residual = 0.145685, Final residual = 0.013993, No Iterations 32
time step continuity errors : sum local = 0.0070973, global = 0.00067067, cumulative = 0.013447
smoothSolver:  Solving for nuTilda, Initial residual = 0.00816867, Final residual = 0.000240385, No Iterations 2
bounding nuTilda, min: -5.06315e-10 max: 0.00348 average: 0.000368727
ExecutionTime = 39.68 s  ClockTime = 40 s

Time = 103

smoothSolver:  Solving for Ux, Initial residual = 0.0390971, Final residual = 0.00250378, No Iterations 3
smoothSolver:  Solving for Uy, Initial residual = 0.166611, Final residual = 0.00867449, No Iterations 3
GAMG:  Solving for p, Initial residual = 0.147916, Final residual = 0.0138886, No Iterations 32
time step continuity errors : sum local = 0.00685993, global = 0.000611282, cumulative = 0.0140582
smoothSolver:  Solving for nuTilda, Initial residual = 0.00794574, Final residual = 0.000232404, No Iterations 2
bounding nuTilda, min: -4.05331e-11 max: 0.00353242 average: 0.000376122
ExecutionTime = 39.89 s  ClockTime = 40 s

Time = 104

smoothSolver:  Solving for Ux, Initial residual = 0.0385275, Final residual = 0.00251058, No Iterations 3
smoothSolver:  Solving for Uy, Initial residual = 0.168568, Final residual = 0.00872459, No Iterations 3
GAMG:  Solving for p, Initial residual = 0.148365, Final residual = 0.0146047, No Iterations 22
time step continuity errors : sum local = 0.00722443, global = 2.57579e-05, cumulative = 0.014084
smoothSolver:  Solving for nuTilda, Initial residual = 0.00771858, Final residual = 0.000223092, No Iterations 2
bounding nuTilda, min: -1.52906e-10 max: 0.00358537 average: 0.000383497
ExecutionTime = 40.07 s  ClockTime = 40 s

Time = 105

smoothSolver:  Solving for Ux, Initial residual = 0.0383321, Final residual = 0.00250852, No Iterations 3
smoothSolver:  Solving for Uy, Initial residual = 0.168755, Final residual = 0.00885976, No Iterations 3
GAMG:  Solving for p, Initial residual = 0.152123, Final residual = 0.0149369, No Iterations 26
time step continuity errors : sum local = 0.00724202, global = -0.000659003, cumulative = 0.013425
smoothSolver:  Solving for nuTilda, Initial residual = 0.00750976, Final residual = 0.000213932, No Iterations 2
bounding nuTilda, min: -6.08115e-10 max: 0.00363808 average: 0.000390943
ExecutionTime = 40.26 s  ClockTime = 41 s

Time = 106

smoothSolver:  Solving for Ux, Initial residual = 0.0394814, Final residual = 0.00253786, No Iterations 3
smoothSolver:  Solving for Uy, Initial residual = 0.16836, Final residual = 0.00890866, No Iterations 3
GAMG:  Solving for p, Initial residual = 0.153688, Final residual = 0.0145793, No Iterations 28
time step continuity errors : sum local = 0.00719765, global = -0.000617082, cumulative = 0.0128079
smoothSolver:  Solving for nuTilda, Initial residual = 0.00730566, Final residual = 0.000204118, No Iterations 2
bounding nuTilda, min: -3.59908e-09 max: 0.00368852 average: 0.000398412
ExecutionTime = 40.48 s  ClockTime = 41 s

Time = 107

smoothSolver:  Solving for Ux, Initial residual = 0.0411034, Final residual = 0.0025322, No Iterations 3
smoothSolver:  Solving for Uy, Initial residual = 0.170339, Final residual = 0.00888354, No Iterations 3
GAMG:  Solving for p, Initial residual = 0.156801, Final residual = 0.0148267, No Iterations 30
time step continuity errors : sum local = 0.00748784, global = -0.00063972, cumulative = 0.0121682
smoothSolver:  Solving for nuTilda, Initial residual = 0.00710951, Final residual = 0.00019497, No Iterations 2
bounding nuTilda, min: -7.88842e-11 max: 0.00373576 average: 0.000405906
ExecutionTime = 40.69 s  ClockTime = 41 s

Time = 108

smoothSolver:  Solving for Ux, Initial residual = 0.0423552, Final residual = 0.00259706, No Iterations 3
smoothSolver:  Solving for Uy, Initial residual = 0.172316, Final residual = 0.00896065, No Iterations 3
GAMG:  Solving for p, Initial residual = 0.167673, Final residual = 0.01589, No Iterations 32
time step continuity errors : sum local = 0.00789129, global = -0.000620328, cumulative = 0.0115479
smoothSolver:  Solving for nuTilda, Initial residual = 0.00692947, Final residual = 0.000189046, No Iterations 2
bounding nuTilda, min: -5.02709e-16 max: 0.00378029 average: 0.000413475
ExecutionTime = 40.92 s  ClockTime = 41 s

Time = 109

smoothSolver:  Solving for Ux, Initial residual = 0.0427409, Final residual = 0.00264197, No Iterations 3
smoothSolver:  Solving for Uy, Initial residual = 0.17271, Final residual = 0.00907484, No Iterations 3
GAMG:  Solving for p, Initial residual = 0.17616, Final residual = 0.0167052, No Iterations 32
time step continuity errors : sum local = 0.00820346, global = -0.000579222, cumulative = 0.0109686
smoothSolver:  Solving for nuTilda, Initial residual = 0.00673984, Final residual = 0.000181741, No Iterations 2
bounding nuTilda, min: -1.75264e-14 max: 0.00382217 average: 0.000421064
ExecutionTime = 41.14 s  ClockTime = 42 s

Time = 110

smoothSolver:  Solving for Ux, Initial residual = 0.0431453, Final residual = 0.00262558, No Iterations 3
smoothSolver:  Solving for Uy, Initial residual = 0.172665, Final residual = 0.00898806, No Iterations 3
GAMG:  Solving for p, Initial residual = 0.180645, Final residual = 0.0180636, No Iterations 30
time step continuity errors : sum local = 0.00874935, global = -0.000609227, cumulative = 0.0103594
smoothSolver:  Solving for nuTilda, Initial residual = 0.00654785, Final residual = 0.000175249, No Iterations 2
bounding nuTilda, min: -4.59421e-12 max: 0.00386182 average: 0.000428649
ExecutionTime = 41.36 s  ClockTime = 42 s

Time = 111

smoothSolver:  Solving for Ux, Initial residual = 0.0429439, Final residual = 0.00261961, No Iterations 3
smoothSolver:  Solving for Uy, Initial residual = 0.175096, Final residual = 0.00897574, No Iterations 3
GAMG:  Solving for p, Initial residual = 0.180834, Final residual = 0.0176881, No Iterations 30
time step continuity errors : sum local = 0.00872694, global = -0.000628237, cumulative = 0.00973118
smoothSolver:  Solving for nuTilda, Initial residual = 0.00635617, Final residual = 0.000167253, No Iterations 2
ExecutionTime = 41.56 s  ClockTime = 42 s

Time = 112

smoothSolver:  Solving for Ux, Initial residual = 0.0425857, Final residual = 0.00256333, No Iterations 3
smoothSolver:  Solving for Uy, Initial residual = 0.175937, Final residual = 0.00862657, No Iterations 3
GAMG:  Solving for p, Initial residual = 0.187126, Final residual = 0.0181092, No Iterations 30
time step continuity errors : sum local = 0.00877089, global = -0.000648809, cumulative = 0.00908238
smoothSolver:  Solving for nuTilda, Initial residual = 0.00619387, Final residual = 0.000161538, No Iterations 2
ExecutionTime = 41.77 s  ClockTime = 42 s

Time = 113

smoothSolver:  Solving for Ux, Initial residual = 0.0418858, Final residual = 0.00252995, No Iterations 3
smoothSolver:  Solving for Uy, Initial residual = 0.177708, Final residual = 0.00859973, No Iterations 3
GAMG:  Solving for p, Initial residual = 0.185416, Final residual = 0.0184134, No Iterations 30
time step continuity errors : sum local = 0.00899321, global = -0.000678793, cumulative = 0.00840358
smoothSolver:  Solving for nuTilda, Initial residual = 0.00603415, Final residual = 0.000156007, No Iterations 2
bounding nuTilda, min: -1.51355e-11 max: 0.00397537 average: 0.000450862
ExecutionTime = 41.99 s  ClockTime = 42 s

Time = 114

smoothSolver:  Solving for Ux, Initial residual = 0.0402525, Final residual = 0.00249223, No Iterations 3
smoothSolver:  Solving for Uy, Initial residual = 0.176792, Final residual = 0.0085205, No Iterations 3
GAMG:  Solving for p, Initial residual = 0.181169, Final residual = 0.0178113, No Iterations 27
time step continuity errors : sum local = 0.00876298, global = 0.00062748, cumulative = 0.00903106
smoothSolver:  Solving for nuTilda, Initial residual = 0.00587261, Final residual = 0.000149235, No Iterations 2
bounding nuTilda, min: -5.32793e-09 max: 0.00401384 average: 0.000457892
ExecutionTime = 42.19 s  ClockTime = 43 s

Time = 115

smoothSolver:  Solving for Ux, Initial residual = 0.0389361, Final residual = 0.00242361, No Iterations 3
smoothSolver:  Solving for Uy, Initial residual = 0.172734, Final residual = 0.00816191, No Iterations 3
GAMG:  Solving for p, Initial residual = 0.172586, Final residual = 0.0163821, No Iterations 30
time step continuity errors : sum local = 0.00825584, global = 0.000649597, cumulative = 0.00968066
smoothSolver:  Solving for nuTilda, Initial residual = 0.00572057, Final residual = 0.000144355, No Iterations 2
ExecutionTime = 42.41 s  ClockTime = 43 s

Time = 116

smoothSolver:  Solving for Ux, Initial residual = 0.038392, Final residual = 0.00226863, No Iterations 3
smoothSolver:  Solving for Uy, Initial residual = 0.16775, Final residual = 0.00791624, No Iterations 3
GAMG:  Solving for p, Initial residual = 0.169385, Final residual = 0.0168717, No Iterations 28
time step continuity errors : sum local = 0.00843447, global = 0.000662441, cumulative = 0.0103431
smoothSolver:  Solving for nuTilda, Initial residual = 0.0055643, Final residual = 0.00013917, No Iterations 2
bounding nuTilda, min: -7.49478e-11 max: 0.0040829 average: 0.000471566
ExecutionTime = 42.61 s  ClockTime = 43 s

Time = 117

smoothSolver:  Solving for Ux, Initial residual = 0.0378969, Final residual = 0.00213593, No Iterations 3
smoothSolver:  Solving for Uy, Initial residual = 0.163984, Final residual = 0.0077771, No Iterations 3
GAMG:  Solving for p, Initial residual = 0.170359, Final residual = 0.0164829, No Iterations 28
time step continuity errors : sum local = 0.00833763, global = 0.000645253, cumulative = 0.0109884
smoothSolver:  Solving for nuTilda, Initial residual = 0.00540984, Final residual = 0.000133461, No Iterations 2
bounding nuTilda, min: -1.50941e-10 max: 0.00411539 average: 0.000478226
ExecutionTime = 42.81 s  ClockTime = 43 s

Time = 118

smoothSolver:  Solving for Ux, Initial residual = 0.0384234, Final residual = 0.00200042, No Iterations 3
smoothSolver:  Solving for Uy, Initial residual = 0.163796, Final residual = 0.0160498, No Iterations 2
GAMG:  Solving for p, Initial residual = 0.16777, Final residual = 0.0167136, No Iterations 28
time step continuity errors : sum local = 0.00842636, global = 0.000722083, cumulative = 0.0117104
smoothSolver:  Solving for nuTilda, Initial residual = 0.00524155, Final residual = 0.000128294, No Iterations 2
bounding nuTilda, min: -6.18112e-11 max: 0.0041467 average: 0.000484845
ExecutionTime = 43.01 s  ClockTime = 43 s

Time = 119

smoothSolver:  Solving for Ux, Initial residual = 0.0382851, Final residual = 0.00188818, No Iterations 3
smoothSolver:  Solving for Uy, Initial residual = 0.16291, Final residual = 0.00758712, No Iterations 3
GAMG:  Solving for p, Initial residual = 0.169164, Final residual = 0.01682, No Iterations 29
time step continuity errors : sum local = 0.00849039, global = -0.000834288, cumulative = 0.0108761
smoothSolver:  Solving for nuTilda, Initial residual = 0.00508442, Final residual = 0.000123609, No Iterations 2
bounding nuTilda, min: -3.28837e-10 max: 0.00417669 average: 0.000491392
ExecutionTime = 43.22 s  ClockTime = 44 s

Time = 120

smoothSolver:  Solving for Ux, Initial residual = 0.0382768, Final residual = 0.00180003, No Iterations 3
smoothSolver:  Solving for Uy, Initial residual = 0.160942, Final residual = 0.015236, No Iterations 2
GAMG:  Solving for p, Initial residual = 0.169798, Final residual = 0.0165322, No Iterations 19
[...]
smoothSolver:  Solving for Ux, Initial residual = 8.83961e-06, Final residual = 8.83961e-06, No Iterations 0
smoothSolver:  Solving for Uy, Initial residual = 1.62899e-05, Final residual = 5.3638e-06, No Iterations 1
GAMG:  Solving for p, Initial residual = 5.81421e-05, Final residual = 3.72633e-06, No Iterations 4
time step continuity errors : sum local = 4.81433e-07, global = 2.99343e-08, cumulative = 0.0126964
smoothSolver:  Solving for nuTilda, Initial residual = 1.65297e-05, Final residual = 1.19477e-06, No Iterations 1
ExecutionTime = 271.87 s  ClockTime = 272 s

Time = 1969

smoothSolver:  Solving for Ux, Initial residual = 8.61072e-06, Final residual = 8.61072e-06, No Iterations 0
smoothSolver:  Solving for Uy, Initial residual = 1.43464e-05, Final residual = 4.54143e-06, No Iterations 1
GAMG:  Solving for p, Initial residual = 5.80508e-05, Final residual = 5.39412e-06, No Iterations 3
time step continuity errors : sum local = 6.96868e-07, global = -9.88628e-08, cumulative = 0.0126963
smoothSolver:  Solving for nuTilda, Initial residual = 1.65258e-05, Final residual = 1.19228e-06, No Iterations 1
ExecutionTime = 271.95 s  ClockTime = 272 s

Time = 1970

smoothSolver:  Solving for Ux, Initial residual = 8.71518e-06, Final residual = 8.71518e-06, No Iterations 0
smoothSolver:  Solving for Uy, Initial residual = 1.5935e-05, Final residual = 5.14401e-06, No Iterations 1
GAMG:  Solving for p, Initial residual = 5.85624e-05, Final residual = 5.49178e-06, No Iterations 3
time step continuity errors : sum local = 7.09527e-07, global = 1.07403e-07, cumulative = 0.0126964
smoothSolver:  Solving for nuTilda, Initial residual = 1.65333e-05, Final residual = 1.19354e-06, No Iterations 1
ExecutionTime = 272.03 s  ClockTime = 272 s

Time = 1971

smoothSolver:  Solving for Ux, Initial residual = 9.03275e-06, Final residual = 9.03275e-06, No Iterations 0
smoothSolver:  Solving for Uy, Initial residual = 1.65844e-05, Final residual = 5.26591e-06, No Iterations 1
GAMG:  Solving for p, Initial residual = 5.94778e-05, Final residual = 5.13709e-06, No Iterations 3
time step continuity errors : sum local = 6.63659e-07, global = -9.08153e-08, cumulative = 0.0126963
smoothSolver:  Solving for nuTilda, Initial residual = 1.65174e-05, Final residual = 1.19192e-06, No Iterations 1
ExecutionTime = 272.11 s  ClockTime = 273 s

Time = 1972

smoothSolver:  Solving for Ux, Initial residual = 9.0879e-06, Final residual = 9.0879e-06, No Iterations 0
smoothSolver:  Solving for Uy, Initial residual = 1.59063e-05, Final residual = 5.08328e-06, No Iterations 1
GAMG:  Solving for p, Initial residual = 5.85108e-05, Final residual = 5.21277e-06, No Iterations 3
time step continuity errors : sum local = 6.73479e-07, global = 7.80163e-08, cumulative = 0.0126964
smoothSolver:  Solving for nuTilda, Initial residual = 1.65234e-05, Final residual = 1.19267e-06, No Iterations 1
ExecutionTime = 272.2 s  ClockTime = 273 s

Time = 1973

smoothSolver:  Solving for Ux, Initial residual = 8.94314e-06, Final residual = 8.94314e-06, No Iterations 0
smoothSolver:  Solving for Uy, Initial residual = 1.67593e-05, Final residual = 5.38529e-06, No Iterations 1
GAMG:  Solving for p, Initial residual = 5.93297e-05, Final residual = 5.92366e-06, No Iterations 3
time step continuity errors : sum local = 7.65279e-07, global = -1.09107e-07, cumulative = 0.0126963
smoothSolver:  Solving for nuTilda, Initial residual = 1.65165e-05, Final residual = 1.19071e-06, No Iterations 1
ExecutionTime = 272.28 s  ClockTime = 273 s

Time = 1974

smoothSolver:  Solving for Ux, Initial residual = 8.86815e-06, Final residual = 8.86815e-06, No Iterations 0
smoothSolver:  Solving for Uy, Initial residual = 1.69254e-05, Final residual = 5.45592e-06, No Iterations 1
GAMG:  Solving for p, Initial residual = 5.98048e-05, Final residual = 4.879e-06, No Iterations 3
time step continuity errors : sum local = 6.30359e-07, global = 7.75091e-08, cumulative = 0.0126963
smoothSolver:  Solving for nuTilda, Initial residual = 1.65222e-05, Final residual = 1.19136e-06, No Iterations 1
ExecutionTime = 272.36 s  ClockTime = 273 s

Time = 1975

smoothSolver:  Solving for Ux, Initial residual = 9.18445e-06, Final residual = 9.18445e-06, No Iterations 0
smoothSolver:  Solving for Uy, Initial residual = 1.69647e-05, Final residual = 5.23895e-06, No Iterations 1
GAMG:  Solving for p, Initial residual = 5.93486e-05, Final residual = 5.61687e-06, No Iterations 3
time step continuity errors : sum local = 7.25645e-07, global = -9.84252e-08, cumulative = 0.0126962
smoothSolver:  Solving for nuTilda, Initial residual = 1.6507e-05, Final residual = 1.1927e-06, No Iterations 1
ExecutionTime = 272.45 s  ClockTime = 273 s

Time = 1976

smoothSolver:  Solving for Ux, Initial residual = 9.42773e-06, Final residual = 9.42773e-06, No Iterations 0
smoothSolver:  Solving for Uy, Initial residual = 1.79587e-05, Final residual = 5.80862e-06, No Iterations 1
GAMG:  Solving for p, Initial residual = 6.03779e-05, Final residual = 5.47982e-06, No Iterations 3
time step continuity errors : sum local = 7.07983e-07, global = 9.40122e-08, cumulative = 0.0126963
smoothSolver:  Solving for nuTilda, Initial residual = 1.65112e-05, Final residual = 1.19193e-06, No Iterations 1
ExecutionTime = 272.53 s  ClockTime = 273 s

Time = 1977

smoothSolver:  Solving for Ux, Initial residual = 9.25546e-06, Final residual = 9.25546e-06, No Iterations 0
smoothSolver:  Solving for Uy, Initial residual = 1.6828e-05, Final residual = 5.14946e-06, No Iterations 1
GAMG:  Solving for p, Initial residual = 5.97532e-05, Final residual = 5.0383e-06, No Iterations 3
time step continuity errors : sum local = 6.50899e-07, global = -6.97282e-08, cumulative = 0.0126963
smoothSolver:  Solving for nuTilda, Initial residual = 1.64989e-05, Final residual = 1.18893e-06, No Iterations 1
ExecutionTime = 272.62 s  ClockTime = 273 s

Time = 1978

smoothSolver:  Solving for Ux, Initial residual = 9.09073e-06, Final residual = 9.09073e-06, No Iterations 0
smoothSolver:  Solving for Uy, Initial residual = 1.73701e-05, Final residual = 5.46405e-06, No Iterations 1
GAMG:  Solving for p, Initial residual = 6.00912e-05, Final residual = 4.20015e-06, No Iterations 4
time step continuity errors : sum local = 5.42652e-07, global = -4.00564e-08, cumulative = 0.0126962
smoothSolver:  Solving for nuTilda, Initial residual = 1.65149e-05, Final residual = 1.19007e-06, No Iterations 1
ExecutionTime = 272.7 s  ClockTime = 273 s

Time = 1979

smoothSolver:  Solving for Ux, Initial residual = 9.39509e-06, Final residual = 9.39509e-06, No Iterations 0
smoothSolver:  Solving for Uy, Initial residual = 1.80299e-05, Final residual = 5.72148e-06, No Iterations 1
GAMG:  Solving for p, Initial residual = 6.06303e-05, Final residual = 5.43907e-06, No Iterations 3
time step continuity errors : sum local = 7.02676e-07, global = 9.88586e-08, cumulative = 0.0126963
smoothSolver:  Solving for nuTilda, Initial residual = 1.65045e-05, Final residual = 1.18931e-06, No Iterations 1
ExecutionTime = 272.79 s  ClockTime = 273 s

Time = 1980

smoothSolver:  Solving for Ux, Initial residual = 9.67995e-06, Final residual = 9.67995e-06, No Iterations 0
smoothSolver:  Solving for Uy, Initial residual = 1.77096e-05, Final residual = 5.53881e-06, No Iterations 1
GAMG:  Solving for p, Initial residual = 6.03639e-05, Final residual = 5.18672e-06, No Iterations 3
time step continuity errors : sum local = 6.70111e-07, global = -7.83002e-08, cumulative = 0.0126962
smoothSolver:  Solving for nuTilda, Initial residual = 1.65241e-05, Final residual = 1.19135e-06, No Iterations 1
ExecutionTime = 272.87 s  ClockTime = 273 s

Time = 1981

smoothSolver:  Solving for Ux, Initial residual = 9.6574e-06, Final residual = 9.6574e-06, No Iterations 0
smoothSolver:  Solving for Uy, Initial residual = 1.85364e-05, Final residual = 5.79712e-06, No Iterations 1
GAMG:  Solving for p, Initial residual = 6.09653e-05, Final residual = 6.01552e-06, No Iterations 3
time step continuity errors : sum local = 7.7715e-07, global = 1.0248e-07, cumulative = 0.0126963
smoothSolver:  Solving for nuTilda, Initial residual = 1.6509e-05, Final residual = 1.18923e-06, No Iterations 1
ExecutionTime = 272.96 s  ClockTime = 273 s

Time = 1982

smoothSolver:  Solving for Ux, Initial residual = 9.34845e-06, Final residual = 9.34845e-06, No Iterations 0
smoothSolver:  Solving for Uy, Initial residual = 1.82153e-05, Final residual = 5.71822e-06, No Iterations 1
GAMG:  Solving for p, Initial residual = 6.11361e-05, Final residual = 5.07108e-06, No Iterations 3
time step continuity errors : sum local = 6.55172e-07, global = -7.29992e-08, cumulative = 0.0126963
smoothSolver:  Solving for nuTilda, Initial residual = 1.65327e-05, Final residual = 1.19087e-06, No Iterations 1
ExecutionTime = 273.04 s  ClockTime = 273 s

Time = 1983

smoothSolver:  Solving for Ux, Initial residual = 9.55742e-06, Final residual = 9.55742e-06, No Iterations 0
smoothSolver:  Solving for Uy, Initial residual = 1.84707e-05, Final residual = 5.62208e-06, No Iterations 1
GAMG:  Solving for p, Initial residual = 6.08913e-05, Final residual = 6.06277e-06, No Iterations 3
time step continuity errors : sum local = 7.83255e-07, global = 1.04044e-07, cumulative = 0.0126964
smoothSolver:  Solving for nuTilda, Initial residual = 1.6513e-05, Final residual = 1.19006e-06, No Iterations 1
ExecutionTime = 273.12 s  ClockTime = 274 s

Time = 1984

smoothSolver:  Solving for Ux, Initial residual = 1.00126e-05, Final residual = 1.86331e-06, No Iterations 1
smoothSolver:  Solving for Uy, Initial residual = 1.96583e-05, Final residual = 6.2436e-06, No Iterations 1
GAMG:  Solving for p, Initial residual = 6.85176e-05, Final residual = 4.76954e-06, No Iterations 4
time step continuity errors : sum local = 6.16214e-07, global = 4.05925e-08, cumulative = 0.0126964
smoothSolver:  Solving for nuTilda, Initial residual = 1.70329e-05, Final residual = 1.22299e-06, No Iterations 1
ExecutionTime = 273.21 s  ClockTime = 274 s

Time = 1985

smoothSolver:  Solving for Ux, Initial residual = 9.24551e-06, Final residual = 9.24551e-06, No Iterations 0
smoothSolver:  Solving for Uy, Initial residual = 1.51516e-05, Final residual = 4.88333e-06, No Iterations 1
GAMG:  Solving for p, Initial residual = 5.88461e-05, Final residual = 3.98404e-06, No Iterations 4
time step continuity errors : sum local = 5.14703e-07, global = 2.92067e-08, cumulative = 0.0126964
smoothSolver:  Solving for nuTilda, Initial residual = 1.67263e-05, Final residual = 1.22239e-06, No Iterations 1
ExecutionTime = 273.29 s  ClockTime = 274 s

Time = 1986

smoothSolver:  Solving for Ux, Initial residual = 7.43588e-06, Final residual = 7.43588e-06, No Iterations 0
smoothSolver:  Solving for Uy, Initial residual = 1.49086e-05, Final residual = 5.06244e-06, No Iterations 1
GAMG:  Solving for p, Initial residual = 5.4363e-05, Final residual = 4.91091e-06, No Iterations 3
time step continuity errors : sum local = 6.34482e-07, global = -1.07864e-07, cumulative = 0.0126963
smoothSolver:  Solving for nuTilda, Initial residual = 1.64921e-05, Final residual = 1.19733e-06, No Iterations 1
ExecutionTime = 273.39 s  ClockTime = 274 s

Time = 1987

smoothSolver:  Solving for Ux, Initial residual = 8.32402e-06, Final residual = 8.32402e-06, No Iterations 0
smoothSolver:  Solving for Uy, Initial residual = 1.49178e-05, Final residual = 5.00609e-06, No Iterations 1
GAMG:  Solving for p, Initial residual = 5.71052e-05, Final residual = 4.1651e-06, No Iterations 4
time step continuity errors : sum local = 5.38097e-07, global = -2.75181e-08, cumulative = 0.0126963
smoothSolver:  Solving for nuTilda, Initial residual = 1.65906e-05, Final residual = 1.19385e-06, No Iterations 1
ExecutionTime = 273.47 s  ClockTime = 274 s

Time = 1988

smoothSolver:  Solving for Ux, Initial residual = 7.93129e-06, Final residual = 7.93129e-06, No Iterations 0
smoothSolver:  Solving for Uy, Initial residual = 1.44222e-05, Final residual = 4.99292e-06, No Iterations 1
GAMG:  Solving for p, Initial residual = 5.49484e-05, Final residual = 3.37464e-06, No Iterations 4
time step continuity errors : sum local = 4.35998e-07, global = -2.125e-08, cumulative = 0.0126963
smoothSolver:  Solving for nuTilda, Initial residual = 1.65021e-05, Final residual = 1.20023e-06, No Iterations 1
ExecutionTime = 273.57 s  ClockTime = 274 s

Time = 1989

smoothSolver:  Solving for Ux, Initial residual = 8.42281e-06, Final residual = 8.42281e-06, No Iterations 0
smoothSolver:  Solving for Uy, Initial residual = 1.6342e-05, Final residual = 5.84831e-06, No Iterations 1
GAMG:  Solving for p, Initial residual = 5.76998e-05, Final residual = 3.86594e-06, No Iterations 4
time step continuity errors : sum local = 4.99445e-07, global = -3.54386e-08, cumulative = 0.0126963
smoothSolver:  Solving for nuTilda, Initial residual = 1.65693e-05, Final residual = 1.19122e-06, No Iterations 1
ExecutionTime = 273.65 s  ClockTime = 274 s

Time = 1990

smoothSolver:  Solving for Ux, Initial residual = 8.13213e-06, Final residual = 8.13213e-06, No Iterations 0
smoothSolver:  Solving for Uy, Initial residual = 1.53237e-05, Final residual = 5.30592e-06, No Iterations 1
GAMG:  Solving for p, Initial residual = 5.59462e-05, Final residual = 5.41751e-06, No Iterations 3
time step continuity errors : sum local = 6.99935e-07, global = 9.76276e-08, cumulative = 0.0126964
smoothSolver:  Solving for nuTilda, Initial residual = 1.65141e-05, Final residual = 1.19776e-06, No Iterations 1
ExecutionTime = 273.74 s  ClockTime = 274 s

Time = 1991

smoothSolver:  Solving for Ux, Initial residual = 8.26598e-06, Final residual = 8.26598e-06, No Iterations 0
smoothSolver:  Solving for Uy, Initial residual = 1.68503e-05, Final residual = 6.01893e-06, No Iterations 1
GAMG:  Solving for p, Initial residual = 5.79152e-05, Final residual = 3.92339e-06, No Iterations 4
time step continuity errors : sum local = 5.06865e-07, global = 2.58218e-08, cumulative = 0.0126964
smoothSolver:  Solving for nuTilda, Initial residual = 1.65493e-05, Final residual = 1.19102e-06, No Iterations 1
ExecutionTime = 273.82 s  ClockTime = 274 s

Time = 1992

smoothSolver:  Solving for Ux, Initial residual = 8.26457e-06, Final residual = 8.26457e-06, No Iterations 0
smoothSolver:  Solving for Uy, Initial residual = 1.57779e-05, Final residual = 5.22504e-06, No Iterations 1
GAMG:  Solving for p, Initial residual = 5.68663e-05, Final residual = 5.1781e-06, No Iterations 3
time step continuity errors : sum local = 6.69004e-07, global = -1.05306e-07, cumulative = 0.0126963
smoothSolver:  Solving for nuTilda, Initial residual = 1.65368e-05, Final residual = 1.19791e-06, No Iterations 1
ExecutionTime = 273.91 s  ClockTime = 274 s

Time = 1993

smoothSolver:  Solving for Ux, Initial residual = 8.51878e-06, Final residual = 8.51878e-06, No Iterations 0
smoothSolver:  Solving for Uy, Initial residual = 1.48425e-05, Final residual = 5.04438e-06, No Iterations 1
GAMG:  Solving for p, Initial residual = 5.72068e-05, Final residual = 5.60412e-06, No Iterations 3
time step continuity errors : sum local = 7.24007e-07, global = 9.40263e-08, cumulative = 0.0126964
smoothSolver:  Solving for nuTilda, Initial residual = 1.65308e-05, Final residual = 1.19208e-06, No Iterations 1
ExecutionTime = 273.99 s  ClockTime = 274 s

Time = 1994

smoothSolver:  Solving for Ux, Initial residual = 8.46069e-06, Final residual = 8.46069e-06, No Iterations 0
smoothSolver:  Solving for Uy, Initial residual = 1.59725e-05, Final residual = 5.31517e-06, No Iterations 1
GAMG:  Solving for p, Initial residual = 5.75364e-05, Final residual = 5.26187e-06, No Iterations 3
time step continuity errors : sum local = 6.79825e-07, global = -1.12266e-07, cumulative = 0.0126963
smoothSolver:  Solving for nuTilda, Initial residual = 1.65135e-05, Final residual = 1.19424e-06, No Iterations 1
ExecutionTime = 274.08 s  ClockTime = 275 s

Time = 1995

smoothSolver:  Solving for Ux, Initial residual = 8.31391e-06, Final residual = 8.31391e-06, No Iterations 0
smoothSolver:  Solving for Uy, Initial residual = 1.49908e-05, Final residual = 4.8804e-06, No Iterations 1
GAMG:  Solving for p, Initial residual = 5.79096e-05, Final residual = 4.97415e-06, No Iterations 3
time step continuity errors : sum local = 6.4262e-07, global = 8.21163e-08, cumulative = 0.0126963
smoothSolver:  Solving for nuTilda, Initial residual = 1.65183e-05, Final residual = 1.19139e-06, No Iterations 1
ExecutionTime = 274.16 s  ClockTime = 275 s

Time = 1996

smoothSolver:  Solving for Ux, Initial residual = 8.40361e-06, Final residual = 8.40361e-06, No Iterations 0
smoothSolver:  Solving for Uy, Initial residual = 1.59783e-05, Final residual = 5.17992e-06, No Iterations 1
GAMG:  Solving for p, Initial residual = 5.7962e-05, Final residual = 3.71332e-06, No Iterations 4
time step continuity errors : sum local = 4.79756e-07, global = 2.4908e-08, cumulative = 0.0126964
smoothSolver:  Solving for nuTilda, Initial residual = 1.65367e-05, Final residual = 1.19361e-06, No Iterations 1
ExecutionTime = 274.25 s  ClockTime = 275 s

Time = 1997

smoothSolver:  Solving for Ux, Initial residual = 8.72652e-06, Final residual = 8.72652e-06, No Iterations 0
smoothSolver:  Solving for Uy, Initial residual = 1.61658e-05, Final residual = 5.36561e-06, No Iterations 1
GAMG:  Solving for p, Initial residual = 5.82643e-05, Final residual = 5.54477e-06, No Iterations 3
time step continuity errors : sum local = 7.16338e-07, global = -1.18427e-07, cumulative = 0.0126962
smoothSolver:  Solving for nuTilda, Initial residual = 1.65143e-05, Final residual = 1.19141e-06, No Iterations 1
ExecutionTime = 274.33 s  ClockTime = 275 s

Time = 1998

smoothSolver:  Solving for Ux, Initial residual = 8.75102e-06, Final residual = 8.75102e-06, No Iterations 0
smoothSolver:  Solving for Uy, Initial residual = 1.54568e-05, Final residual = 5.00883e-06, No Iterations 1
GAMG:  Solving for p, Initial residual = 5.79704e-05, Final residual = 4.98999e-06, No Iterations 3
time step continuity errors : sum local = 6.44705e-07, global = 8.37054e-08, cumulative = 0.0126963
smoothSolver:  Solving for nuTilda, Initial residual = 1.65127e-05, Final residual = 1.19368e-06, No Iterations 1
ExecutionTime = 274.42 s  ClockTime = 275 s

Time = 1999

smoothSolver:  Solving for Ux, Initial residual = 8.626e-06, Final residual = 8.626e-06, No Iterations 0
smoothSolver:  Solving for Uy, Initial residual = 1.59743e-05, Final residual = 5.17877e-06, No Iterations 1
GAMG:  Solving for p, Initial residual = 5.85535e-05, Final residual = 5.57115e-06, No Iterations 3
time step continuity errors : sum local = 7.19744e-07, global = -1.1175e-07, cumulative = 0.0126962
smoothSolver:  Solving for nuTilda, Initial residual = 1.6505e-05, Final residual = 1.19008e-06, No Iterations 1
ExecutionTime = 274.5 s  ClockTime = 275 s

Time = 2000

smoothSolver:  Solving for Ux, Initial residual = 8.57921e-06, Final residual = 8.57921e-06, No Iterations 0
smoothSolver:  Solving for Uy, Initial residual = 1.6157e-05, Final residual = 5.25584e-06, No Iterations 1
GAMG:  Solving for p, Initial residual = 5.89408e-05, Final residual = 4.99712e-06, No Iterations 3
time step continuity errors : sum local = 6.45626e-07, global = 8.38702e-08, cumulative = 0.0126963
smoothSolver:  Solving for nuTilda, Initial residual = 1.652e-05, Final residual = 1.19162e-06, No Iterations 1
ExecutionTime = 274.8 s  ClockTime = 275 s

wallShearStress wallShearStress write:
    writing field wallShearStress
    min/max(lowerWall) = (-0.0221565 -0.000326587 -1.84996e-19), (0.000583937 0.000824474 1.64441e-19)
    min/max(upperWall) = (-0.0221565 -1.29375e-06 -1.62031e-22), (-0.000443363 0.000326587 1.89038e-22)
    functionObjects::turbulenceFields turbulenceFields1 writing field: turbulenceProperties:R

    functionObjects::components components1 writing field: Ux
    functionObjects::components components1 writing field: Uy
    functionObjects::components components1 writing field: Uz
End

