/*---------------------------------------------------------------------------*\
| =========                 |                                                 |
| \\      /  F ield         | OpenFOAM: The Open Source CFD Toolbox           |
|  \\    /   O peration     | Version:  2412                                  |
|   \\  /    A nd           | Website:  www.openfoam.com                      |
|    \\/     M anipulation  |                                                 |
\*---------------------------------------------------------------------------*/
Build  : _8dbc61e11c-20241220 OPENFOAM=2412 version=v2412
Arch   : "LSB;label=32;scalar=64"
Exec   : simpleFoam
Date   : May 30 2025
Time   : 18:38:24
Host   : am409
PID    : 1578754
I/O    : uncollated
Case   : /home/roko/examinationAssignmentFiles_part1/Diffuser/kOmegaSST
nProcs : 1
trapFpe: Floating point exception trapping enabled (FOAM_SIGFPE).
fileModificationChecking : Monitoring run-time modified files using timeStampMaster (fileModificationSkew 5, maxFileModificationPolls 20)
allowSystemOperations : Allowing user-supplied system call operations

// * * * * * * * * * * * * * * * * * * * * * * * * * * * * * * * * * * * * * //
Create time

Create mesh for time = 0


SIMPLE: convergence criteria
    field p	 tolerance 1e-05
    field U	 tolerance 1e-05
    field "(k|epsilon|omega|f|v2|nuTilda)"	 tolerance 1e-05

Reading field p

Reading field U

Reading/calculating face flux field phi

Selecting incompressible transport model Newtonian
Selecting turbulence model type RAS
Selecting RAS turbulence model kOmegaSST
Selecting patchDistMethod meshWave
RAS
{
    RASModel        kOmegaSST;
    turbulence      on;
    printCoeffs     on;
    alphaK1         0.85;
    alphaK2         1;
    alphaOmega1     0.5;
    alphaOmega2     0.856;
    gamma1          0.555556;
    gamma2          0.44;
    beta1           0.075;
    beta2           0.0828;
    betaStar        0.09;
    a1              0.31;
    b1              1;
    c1              10;
    F3              false;
    decayControl    false;
    kInf            0;
    omegaInf        0;
}

No MRF models present

No finite volume options present

Starting time loop

wallShearStress wallShearStress:
    processing (2) wall patches:
        lowerWall
        upperWall

turbulenceFields turbulenceFields1: storing fields:
    turbulenceProperties:R

Sampled surface:
    lowerWall -> raw
        sampledPatch: lowerWall : patches:(lowerWall)
    upperWall -> raw
        sampledPatch: upperWall : patches:(upperWall)

Sampled surface:
    interface -> raw
        isoSurface: interface : isoMethod:cell regularise:full snap:1 field:Ux value:(0)

Sampled set:
    line -> raw

Sampled set:
    line -> raw

Sampled set:
    line -> raw

Sampled set:
    line -> raw

Sampled set:
    line -> raw

Sampled set:
    line -> raw

Sampled set:
    line -> raw

Sampled set:
    line -> raw

Sampled set:
    line -> raw

Sampled set:
    line -> raw

Sampled set:
    line -> raw

Sampled set:
    line -> raw

Sampled set:
    line -> raw

Sampled set:
    line -> raw

Sampled set:
    line -> raw

Sampled set:
    line -> raw

Sampled set:
    line -> raw

Sampled set:
    line -> raw

Sampled set:
    line -> raw

Sampled set:
    line -> raw

Sampled set:
    line -> raw

Sampled set:
    line -> raw

Sampled set:
    line -> raw

Sampled set:
    line -> raw

Time = 1

smoothSolver:  Solving for Ux, Initial residual = 1, Final residual = 0.0575787, No Iterations 3
smoothSolver:  Solving for Uy, Initial residual = 1, Final residual = 0.0656186, No Iterations 6
GAMG:  Solving for p, Initial residual = 1, Final residual = 0.0996957, No Iterations 844
time step continuity errors : sum local = 0.000409817, global = -0.000171593, cumulative = -0.000171593
smoothSolver:  Solving for omega, Initial residual = 0.225437, Final residual = 0.0147341, No Iterations 3
bounding omega, min: -0.0964796 max: 8013.61 average: 309.803
smoothSolver:  Solving for k, Initial residual = 1, Final residual = 0.0551549, No Iterations 4
ExecutionTime = 13.58 s  ClockTime = 14 s

Time = 2

smoothSolver:  Solving for Ux, Initial residual = 0.546778, Final residual = 0.0397639, No Iterations 5
smoothSolver:  Solving for Uy, Initial residual = 0.325752, Final residual = 0.0289251, No Iterations 4
GAMG:  Solving for p, Initial residual = 0.00444217, Final residual = 0.00106011, No Iterations 1000
time step continuity errors : sum local = 0.0144652, global = 0.00230764, cumulative = 0.00213605
smoothSolver:  Solving for omega, Initial residual = 0.235961, Final residual = 0.00103998, No Iterations 1
bounding omega, min: -0.658839 max: 8006 average: 156.003
smoothSolver:  Solving for k, Initial residual = 0.310009, Final residual = 0.0155372, No Iterations 2
ExecutionTime = 17.29 s  ClockTime = 17 s

Time = 3

smoothSolver:  Solving for Ux, Initial residual = 0.161041, Final residual = 0.0154032, No Iterations 4
smoothSolver:  Solving for Uy, Initial residual = 0.286463, Final residual = 0.0216258, No Iterations 3
GAMG:  Solving for p, Initial residual = 0.014363, Final residual = 0.00195445, No Iterations 1000
time step continuity errors : sum local = 0.00698618, global = 0.00125394, cumulative = 0.00338999
smoothSolver:  Solving for omega, Initial residual = 0.0110776, Final residual = 0.000489634, No Iterations 1
bounding omega, min: -0.0857158 max: 8003.07 average: 165.591
smoothSolver:  Solving for k, Initial residual = 0.25476, Final residual = 0.00932535, No Iterations 2
bounding k, min: -0.00706786 max: 0.154522 average: 0.0162164
ExecutionTime = 21.44 s  ClockTime = 22 s

Time = 4

smoothSolver:  Solving for Ux, Initial residual = 0.106678, Final residual = 0.00774021, No Iterations 4
smoothSolver:  Solving for Uy, Initial residual = 0.134125, Final residual = 0.00757685, No Iterations 3
GAMG:  Solving for p, Initial residual = 0.0136693, Final residual = 0.00135743, No Iterations 160
time step continuity errors : sum local = 0.00319189, global = 0.000406941, cumulative = 0.00379693
smoothSolver:  Solving for omega, Initial residual = 0.00652972, Final residual = 0.000255466, No Iterations 1
smoothSolver:  Solving for k, Initial residual = 0.20544, Final residual = 0.00588828, No Iterations 2
ExecutionTime = 22.18 s  ClockTime = 22 s

Time = 5

smoothSolver:  Solving for Ux, Initial residual = 0.0953924, Final residual = 0.00852786, No Iterations 4
smoothSolver:  Solving for Uy, Initial residual = 0.246463, Final residual = 0.0169488, No Iterations 4
GAMG:  Solving for p, Initial residual = 0.0109254, Final residual = 0.00109231, No Iterations 535
time step continuity errors : sum local = 0.00247119, global = -0.000415255, cumulative = 0.00338168
smoothSolver:  Solving for omega, Initial residual = 0.00306777, Final residual = 0.000197961, No Iterations 1
smoothSolver:  Solving for k, Initial residual = 0.14754, Final residual = 0.0071649, No Iterations 2
ExecutionTime = 24.43 s  ClockTime = 25 s

Time = 6

smoothSolver:  Solving for Ux, Initial residual = 0.0803994, Final residual = 0.00745987, No Iterations 4
smoothSolver:  Solving for Uy, Initial residual = 0.200114, Final residual = 0.0141724, No Iterations 4
GAMG:  Solving for p, Initial residual = 0.013934, Final residual = 0.00139189, No Iterations 825
time step continuity errors : sum local = 0.00186524, global = -0.000303669, cumulative = 0.00307801
smoothSolver:  Solving for omega, Initial residual = 0.00204582, Final residual = 0.000159683, No Iterations 1
smoothSolver:  Solving for k, Initial residual = 0.107507, Final residual = 0.00902698, No Iterations 2
ExecutionTime = 27.9 s  ClockTime = 28 s

Time = 7

smoothSolver:  Solving for Ux, Initial residual = 0.054168, Final residual = 0.00349602, No Iterations 5
smoothSolver:  Solving for Uy, Initial residual = 0.139819, Final residual = 0.00824667, No Iterations 4
GAMG:  Solving for p, Initial residual = 0.126923, Final residual = 0.0126614, No Iterations 253
time step continuity errors : sum local = 0.00149316, global = -0.000248349, cumulative = 0.00282966
smoothSolver:  Solving for omega, Initial residual = 0.00123786, Final residual = 3.96294e-05, No Iterations 2
smoothSolver:  Solving for k, Initial residual = 0.0744618, Final residual = 0.00699869, No Iterations 2
ExecutionTime = 29.03 s  ClockTime = 29 s

Time = 8

smoothSolver:  Solving for Ux, Initial residual = 0.0441141, Final residual = 0.00330581, No Iterations 5
smoothSolver:  Solving for Uy, Initial residual = 0.105894, Final residual = 0.00622741, No Iterations 4
GAMG:  Solving for p, Initial residual = 0.0517554, Final residual = 0.00516399, No Iterations 279
time step continuity errors : sum local = 0.000897808, global = -0.000158803, cumulative = 0.00267086
smoothSolver:  Solving for omega, Initial residual = 0.000785671, Final residual = 2.89273e-05, No Iterations 2
smoothSolver:  Solving for k, Initial residual = 0.0655419, Final residual = 0.00260744, No Iterations 3
ExecutionTime = 30.26 s  ClockTime = 30 s

Time = 9

smoothSolver:  Solving for Ux, Initial residual = 0.0383917, Final residual = 0.00316255, No Iterations 5
smoothSolver:  Solving for Uy, Initial residual = 0.0819983, Final residual = 0.00491845, No Iterations 4
GAMG:  Solving for p, Initial residual = 0.0259905, Final residual = 0.00259356, No Iterations 136
time step continuity errors : sum local = 0.000708502, global = -0.000105729, cumulative = 0.00256513
smoothSolver:  Solving for omega, Initial residual = 0.000556852, Final residual = 2.25771e-05, No Iterations 2
smoothSolver:  Solving for k, Initial residual = 0.0553246, Final residual = 0.00262042, No Iterations 3
ExecutionTime = 30.9 s  ClockTime = 31 s

Time = 10

smoothSolver:  Solving for Ux, Initial residual = 0.0334463, Final residual = 0.00293008, No Iterations 5
smoothSolver:  Solving for Uy, Initial residual = 0.0760843, Final residual = 0.00492302, No Iterations 4
GAMG:  Solving for p, Initial residual = 0.023117, Final residual = 0.00229519, No Iterations 163
time step continuity errors : sum local = 0.000643281, global = 7.80068e-05, cumulative = 0.00264313
smoothSolver:  Solving for omega, Initial residual = 0.000368187, Final residual = 1.92179e-05, No Iterations 2
smoothSolver:  Solving for k, Initial residual = 0.0464346, Final residual = 0.00258347, No Iterations 3
ExecutionTime = 31.66 s  ClockTime = 32 s

Time = 11

smoothSolver:  Solving for Ux, Initial residual = 0.0295569, Final residual = 0.00269913, No Iterations 5
smoothSolver:  Solving for Uy, Initial residual = 0.0697574, Final residual = 0.00466833, No Iterations 4
GAMG:  Solving for p, Initial residual = 0.0213078, Final residual = 0.00212858, No Iterations 205
time step continuity errors : sum local = 0.000567386, global = 6.27228e-05, cumulative = 0.00270586
smoothSolver:  Solving for omega, Initial residual = 0.000275662, Final residual = 1.93976e-05, No Iterations 2
smoothSolver:  Solving for k, Initial residual = 0.0405674, Final residual = 0.00256679, No Iterations 3
ExecutionTime = 32.59 s  ClockTime = 33 s

Time = 12

smoothSolver:  Solving for Ux, Initial residual = 0.0264186, Final residual = 0.00248556, No Iterations 5
smoothSolver:  Solving for Uy, Initial residual = 0.0662327, Final residual = 0.00455601, No Iterations 4
GAMG:  Solving for p, Initial residual = 0.0225532, Final residual = 0.00225314, No Iterations 213
time step continuity errors : sum local = 0.000506921, global = 5.78784e-05, cumulative = 0.00276374
smoothSolver:  Solving for omega, Initial residual = 0.000193377, Final residual = 1.83542e-05, No Iterations 2
smoothSolver:  Solving for k, Initial residual = 0.0356664, Final residual = 0.00252191, No Iterations 3
ExecutionTime = 33.51 s  ClockTime = 34 s

Time = 13

smoothSolver:  Solving for Ux, Initial residual = 0.023959, Final residual = 0.00229006, No Iterations 5
smoothSolver:  Solving for Uy, Initial residual = 0.0637756, Final residual = 0.00451918, No Iterations 4
GAMG:  Solving for p, Initial residual = 0.0260863, Final residual = 0.00260304, No Iterations 134
time step continuity errors : sum local = 0.000460318, global = 5.36582e-05, cumulative = 0.00281739
smoothSolver:  Solving for omega, Initial residual = 0.000170848, Final residual = 8.40098e-06, No Iterations 3
smoothSolver:  Solving for k, Initial residual = 0.0315573, Final residual = 0.00242149, No Iterations 3
ExecutionTime = 34.15 s  ClockTime = 34 s

Time = 14

smoothSolver:  Solving for Ux, Initial residual = 0.022098, Final residual = 0.00213022, No Iterations 5
smoothSolver:  Solving for Uy, Initial residual = 0.0617662, Final residual = 0.00442817, No Iterations 4
GAMG:  Solving for p, Initial residual = 0.0313411, Final residual = 0.00313358, No Iterations 72
time step continuity errors : sum local = 0.000429596, global = 5.40344e-05, cumulative = 0.00287143
smoothSolver:  Solving for omega, Initial residual = 0.000122715, Final residual = 7.79107e-06, No Iterations 3
smoothSolver:  Solving for k, Initial residual = 0.028424, Final residual = 0.00235259, No Iterations 3
ExecutionTime = 34.54 s  ClockTime = 35 s

Time = 15

smoothSolver:  Solving for Ux, Initial residual = 0.0205561, Final residual = 0.00200424, No Iterations 5
smoothSolver:  Solving for Uy, Initial residual = 0.0596647, Final residual = 0.00439526, No Iterations 4
GAMG:  Solving for p, Initial residual = 0.03204, Final residual = 0.00318318, No Iterations 85
time step continuity errors : sum local = 0.000405269, global = -5.07503e-05, cumulative = 0.00282068
smoothSolver:  Solving for omega, Initial residual = 0.000122404, Final residual = 7.71535e-06, No Iterations 3
smoothSolver:  Solving for k, Initial residual = 0.0255381, Final residual = 0.00227596, No Iterations 3
ExecutionTime = 34.97 s  ClockTime = 35 s

Time = 16

smoothSolver:  Solving for Ux, Initial residual = 0.0192981, Final residual = 0.00189354, No Iterations 5
smoothSolver:  Solving for Uy, Initial residual = 0.0584065, Final residual = 0.00442883, No Iterations 4
GAMG:  Solving for p, Initial residual = 0.0331634, Final residual = 0.00328503, No Iterations 83
time step continuity errors : sum local = 0.000391763, global = -4.63793e-05, cumulative = 0.0027743
smoothSolver:  Solving for omega, Initial residual = 9.98728e-05, Final residual = 7.41476e-06, No Iterations 3
smoothSolver:  Solving for k, Initial residual = 0.0229918, Final residual = 0.00218207, No Iterations 3
ExecutionTime = 35.41 s  ClockTime = 36 s

Time = 17

smoothSolver:  Solving for Ux, Initial residual = 0.0182265, Final residual = 0.00179828, No Iterations 5
smoothSolver:  Solving for Uy, Initial residual = 0.0574583, Final residual = 0.00451993, No Iterations 4
GAMG:  Solving for p, Initial residual = 0.032268, Final residual = 0.00320296, No Iterations 86
time step continuity errors : sum local = 0.000380382, global = -4.87747e-05, cumulative = 0.00272552
smoothSolver:  Solving for omega, Initial residual = 0.000105966, Final residual = 7.29672e-06, No Iterations 3
smoothSolver:  Solving for k, Initial residual = 0.0207396, Final residual = 0.0011098, No Iterations 4
ExecutionTime = 35.86 s  ClockTime = 36 s

Time = 18

smoothSolver:  Solving for Ux, Initial residual = 0.0172373, Final residual = 0.00171403, No Iterations 5
smoothSolver:  Solving for Uy, Initial residual = 0.0562769, Final residual = 0.0045752, No Iterations 4
GAMG:  Solving for p, Initial residual = 0.0297021, Final residual = 0.00296165, No Iterations 100
time step continuity errors : sum local = 0.000368346, global = -5.27029e-05, cumulative = 0.00267282
smoothSolver:  Solving for omega, Initial residual = 9.8036e-05, Final residual = 7.09117e-06, No Iterations 3
smoothSolver:  Solving for k, Initial residual = 0.01876, Final residual = 0.00107326, No Iterations 4
ExecutionTime = 36.35 s  ClockTime = 37 s

Time = 19

smoothSolver:  Solving for Ux, Initial residual = 0.0163475, Final residual = 0.00105838, No Iterations 6
smoothSolver:  Solving for Uy, Initial residual = 0.0551862, Final residual = 0.00464017, No Iterations 4
GAMG:  Solving for p, Initial residual = 0.0265772, Final residual = 0.00265765, No Iterations 116
time step continuity errors : sum local = 0.000364154, global = -5.41214e-05, cumulative = 0.0026187
smoothSolver:  Solving for omega, Initial residual = 0.000102969, Final residual = 7.03811e-06, No Iterations 3
smoothSolver:  Solving for k, Initial residual = 0.0172012, Final residual = 0.00102461, No Iterations 4
ExecutionTime = 36.93 s  ClockTime = 37 s

Time = 20

smoothSolver:  Solving for Ux, Initial residual = 0.0155073, Final residual = 0.00101684, No Iterations 6
smoothSolver:  Solving for Uy, Initial residual = 0.0545516, Final residual = 0.0047393, No Iterations 4
GAMG:  Solving for p, Initial residual = 0.0232754, Final residual = 0.00231941, No Iterations 116
time step continuity errors : sum local = 0.000358305, global = -5.20656e-05, cumulative = 0.00256663
smoothSolver:  Solving for omega, Initial residual = 9.88415e-05, Final residual = 6.87573e-06, No Iterations 3
smoothSolver:  Solving for k, Initial residual = 0.0158179, Final residual = 0.000971264, No Iterations 4
ExecutionTime = 37.49 s  ClockTime = 38 s

Time = 21

smoothSolver:  Solving for Ux, Initial residual = 0.0147386, Final residual = 0.000979945, No Iterations 6
smoothSolver:  Solving for Uy, Initial residual = 0.0533015, Final residual = 0.0047583, No Iterations 4
GAMG:  Solving for p, Initial residual = 0.0204085, Final residual = 0.00202764, No Iterations 94
time step continuity errors : sum local = 0.000349908, global = -4.78525e-05, cumulative = 0.00251878
smoothSolver:  Solving for omega, Initial residual = 9.97582e-05, Final residual = 6.66716e-06, No Iterations 3
smoothSolver:  Solving for k, Initial residual = 0.0147648, Final residual = 0.000916165, No Iterations 4
ExecutionTime = 37.98 s  ClockTime = 38 s

Time = 22

smoothSolver:  Solving for Ux, Initial residual = 0.0140158, Final residual = 0.000943785, No Iterations 6
smoothSolver:  Solving for Uy, Initial residual = 0.0515152, Final residual = 0.00473191, No Iterations 4
GAMG:  Solving for p, Initial residual = 0.0184317, Final residual = 0.00183711, No Iterations 74
time step continuity errors : sum local = 0.000340683, global = -4.26326e-05, cumulative = 0.00247615
smoothSolver:  Solving for omega, Initial residual = 9.70644e-05, Final residual = 6.50828e-06, No Iterations 3
smoothSolver:  Solving for k, Initial residual = 0.0139738, Final residual = 0.000877332, No Iterations 4
ExecutionTime = 38.38 s  ClockTime = 39 s

Time = 23

smoothSolver:  Solving for Ux, Initial residual = 0.0133446, Final residual = 0.000908815, No Iterations 6
smoothSolver:  Solving for Uy, Initial residual = 0.0495789, Final residual = 0.00468183, No Iterations 4
GAMG:  Solving for p, Initial residual = 0.0171366, Final residual = 0.00171106, No Iterations 62
time step continuity errors : sum local = 0.00033101, global = -3.74745e-05, cumulative = 0.00243867
smoothSolver:  Solving for omega, Initial residual = 9.59189e-05, Final residual = 6.35889e-06, No Iterations 3
smoothSolver:  Solving for k, Initial residual = 0.0134306, Final residual = 0.000845691, No Iterations 4
ExecutionTime = 38.73 s  ClockTime = 39 s

Time = 24

smoothSolver:  Solving for Ux, Initial residual = 0.0127255, Final residual = 0.000875557, No Iterations 6
smoothSolver:  Solving for Uy, Initial residual = 0.047834, Final residual = 0.0046417, No Iterations 4
GAMG:  Solving for p, Initial residual = 0.0162743, Final residual = 0.0016121, No Iterations 55
time step continuity errors : sum local = 0.000319434, global = 3.30287e-05, cumulative = 0.0024717
smoothSolver:  Solving for omega, Initial residual = 9.33361e-05, Final residual = 6.16898e-06, No Iterations 3
smoothSolver:  Solving for k, Initial residual = 0.0130262, Final residual = 0.000823125, No Iterations 4
ExecutionTime = 39.05 s  ClockTime = 39 s

Time = 25

smoothSolver:  Solving for Ux, Initial residual = 0.012155, Final residual = 0.000844196, No Iterations 6
smoothSolver:  Solving for Uy, Initial residual = 0.0460891, Final residual = 0.0045826, No Iterations 4
GAMG:  Solving for p, Initial residual = 0.0155956, Final residual = 0.00154119, No Iterations 51
time step continuity errors : sum local = 0.000309296, global = 3.19647e-05, cumulative = 0.00250367
smoothSolver:  Solving for omega, Initial residual = 9.13721e-05, Final residual = 6.03871e-06, No Iterations 3
smoothSolver:  Solving for k, Initial residual = 0.0128479, Final residual = 0.000821769, No Iterations 4
ExecutionTime = 39.36 s  ClockTime = 40 s

Time = 26

smoothSolver:  Solving for Ux, Initial residual = 0.0116266, Final residual = 0.000814775, No Iterations 6
smoothSolver:  Solving for Uy, Initial residual = 0.0442177, Final residual = 0.00272775, No Iterations 5
GAMG:  Solving for p, Initial residual = 0.0155492, Final residual = 0.00153427, No Iterations 50
time step continuity errors : sum local = 0.000308245, global = 3.4586e-05, cumulative = 0.00253825
smoothSolver:  Solving for omega, Initial residual = 8.90377e-05, Final residual = 5.85264e-06, No Iterations 3
smoothSolver:  Solving for k, Initial residual = 0.0127215, Final residual = 0.000825444, No Iterations 4
ExecutionTime = 39.67 s  ClockTime = 40 s

Time = 27

smoothSolver:  Solving for Ux, Initial residual = 0.0111509, Final residual = 0.000787168, No Iterations 6
smoothSolver:  Solving for Uy, Initial residual = 0.0415495, Final residual = 0.00258689, No Iterations 5
GAMG:  Solving for p, Initial residual = 0.0156964, Final residual = 0.00155355, No Iterations 51
time step continuity errors : sum local = 0.000308338, global = 3.43888e-05, cumulative = 0.00257264
smoothSolver:  Solving for omega, Initial residual = 8.66503e-05, Final residual = 5.75008e-06, No Iterations 3
smoothSolver:  Solving for k, Initial residual = 0.0126676, Final residual = 0.000845145, No Iterations 4
ExecutionTime = 39.98 s  ClockTime = 40 s

Time = 28

smoothSolver:  Solving for Ux, Initial residual = 0.0107327, Final residual = 0.000760244, No Iterations 6
smoothSolver:  Solving for Uy, Initial residual = 0.0397614, Final residual = 0.00252209, No Iterations 5
GAMG:  Solving for p, Initial residual = 0.0165394, Final residual = 0.00165169, No Iterations 68
time step continuity errors : sum local = 0.000314748, global = 3.61558e-05, cumulative = 0.0026088
smoothSolver:  Solving for omega, Initial residual = 8.42502e-05, Final residual = 5.58418e-06, No Iterations 3
smoothSolver:  Solving for k, Initial residual = 0.0127275, Final residual = 0.000868289, No Iterations 4
ExecutionTime = 40.36 s  ClockTime = 41 s

Time = 29

smoothSolver:  Solving for Ux, Initial residual = 0.0103311, Final residual = 0.000733557, No Iterations 6
smoothSolver:  Solving for Uy, Initial residual = 0.0376044, Final residual = 0.00244323, No Iterations 5
GAMG:  Solving for p, Initial residual = 0.0171777, Final residual = 0.00170762, No Iterations 94
time step continuity errors : sum local = 0.000309919, global = 3.59261e-05, cumulative = 0.00264472
smoothSolver:  Solving for omega, Initial residual = 8.14668e-05, Final residual = 5.47754e-06, No Iterations 3
smoothSolver:  Solving for k, Initial residual = 0.0129155, Final residual = 0.000912175, No Iterations 4
ExecutionTime = 40.85 s  ClockTime = 41 s

Time = 30

smoothSolver:  Solving for Ux, Initial residual = 0.00997302, Final residual = 0.000707382, No Iterations 6
smoothSolver:  Solving for Uy, Initial residual = 0.0355631, Final residual = 0.00235897, No Iterations 5
GAMG:  Solving for p, Initial residual = 0.0184414, Final residual = 0.00184303, No Iterations 96
time step continuity errors : sum local = 0.000309174, global = 3.43993e-05, cumulative = 0.00267912
smoothSolver:  Solving for omega, Initial residual = 7.90002e-05, Final residual = 5.39487e-06, No Iterations 3
smoothSolver:  Solving for k, Initial residual = 0.0131633, Final residual = 0.000960928, No Iterations 4
ExecutionTime = 41.35 s  ClockTime = 42 s

Time = 31

smoothSolver:  Solving for Ux, Initial residual = 0.00963191, Final residual = 0.000682036, No Iterations 6
smoothSolver:  Solving for Uy, Initial residual = 0.0334447, Final residual = 0.00227552, No Iterations 5
GAMG:  Solving for p, Initial residual = 0.0196758, Final residual = 0.00196139, No Iterations 92
time step continuity errors : sum local = 0.000302041, global = 3.10019e-05, cumulative = 0.00271013
smoothSolver:  Solving for omega, Initial residual = 7.604e-05, Final residual = 5.24228e-06, No Iterations 3
smoothSolver:  Solving for k, Initial residual = 0.0134645, Final residual = 0.00101286, No Iterations 4
ExecutionTime = 41.84 s  ClockTime = 42 s

Time = 32

smoothSolver:  Solving for Ux, Initial residual = 0.00930025, Final residual = 0.000657866, No Iterations 6
smoothSolver:  Solving for Uy, Initial residual = 0.0316149, Final residual = 0.0022004, No Iterations 5
GAMG:  Solving for p, Initial residual = 0.0208338, Final residual = 0.00207128, No Iterations 80
time step continuity errors : sum local = 0.000295213, global = 2.76355e-05, cumulative = 0.00273776
smoothSolver:  Solving for omega, Initial residual = 7.34781e-05, Final residual = 9.95007e-06, No Iterations 2
smoothSolver:  Solving for k, Initial residual = 0.0139131, Final residual = 0.00107379, No Iterations 4
ExecutionTime = 42.26 s  ClockTime = 42 s

Time = 33

smoothSolver:  Solving for Ux, Initial residual = 0.00894512, Final residual = 0.00063371, No Iterations 6
smoothSolver:  Solving for Uy, Initial residual = 0.0302727, Final residual = 0.00215073, No Iterations 5
GAMG:  Solving for p, Initial residual = 0.0215919, Final residual = 0.00214317, No Iterations 76
time step continuity errors : sum local = 0.000289113, global = 2.52403e-05, cumulative = 0.002763
smoothSolver:  Solving for omega, Initial residual = 7.30253e-05, Final residual = 5.1757e-06, No Iterations 3
smoothSolver:  Solving for k, Initial residual = 0.0142729, Final residual = 0.00112929, No Iterations 4
ExecutionTime = 42.67 s  ClockTime = 43 s

Time = 34

smoothSolver:  Solving for Ux, Initial residual = 0.0086125, Final residual = 0.000611426, No Iterations 6
smoothSolver:  Solving for Uy, Initial residual = 0.0292863, Final residual = 0.00211428, No Iterations 5
GAMG:  Solving for p, Initial residual = 0.0219855, Final residual = 0.00218759, No Iterations 74
time step continuity errors : sum local = 0.000284391, global = 2.35732e-05, cumulative = 0.00278657
smoothSolver:  Solving for omega, Initial residual = 6.84618e-05, Final residual = 9.60025e-06, No Iterations 2
smoothSolver:  Solving for k, Initial residual = 0.014642, Final residual = 0.00117528, No Iterations 4
ExecutionTime = 43.07 s  ClockTime = 43 s

Time = 35

smoothSolver:  Solving for Ux, Initial residual = 0.00826671, Final residual = 0.000588551, No Iterations 6
smoothSolver:  Solving for Uy, Initial residual = 0.0283851, Final residual = 0.00207118, No Iterations 5
GAMG:  Solving for p, Initial residual = 0.0221699, Final residual = 0.00220934, No Iterations 70
time step continuity errors : sum local = 0.00028022, global = 2.21946e-05, cumulative = 0.00280877
smoothSolver:  Solving for omega, Initial residual = 6.79056e-05, Final residual = 9.60387e-06, No Iterations 2
smoothSolver:  Solving for k, Initial residual = 0.0151329, Final residual = 0.00123825, No Iterations 4
ExecutionTime = 43.45 s  ClockTime = 44 s

Time = 36

smoothSolver:  Solving for Ux, Initial residual = 0.00793571, Final residual = 0.000566214, No Iterations 6
smoothSolver:  Solving for Uy, Initial residual = 0.0275933, Final residual = 0.00202786, No Iterations 5
GAMG:  Solving for p, Initial residual = 0.0222703, Final residual = 0.00222105, No Iterations 66
time step continuity errors : sum local = 0.000276776, global = 2.03868e-05, cumulative = 0.00282916
smoothSolver:  Solving for omega, Initial residual = 6.51846e-05, Final residual = 9.415e-06, No Iterations 2
smoothSolver:  Solving for k, Initial residual = 0.015598, Final residual = 0.00129551, No Iterations 4
ExecutionTime = 43.82 s  ClockTime = 44 s

Time = 37

smoothSolver:  Solving for Ux, Initial residual = 0.00761993, Final residual = 0.000544918, No Iterations 6
smoothSolver:  Solving for Uy, Initial residual = 0.0269703, Final residual = 0.00198996, No Iterations 5
GAMG:  Solving for p, Initial residual = 0.0223152, Final residual = 0.00220263, No Iterations 64
time step continuity errors : sum local = 0.00027162, global = 1.90765e-05, cumulative = 0.00284823
smoothSolver:  Solving for omega, Initial residual = 6.28297e-05, Final residual = 9.19986e-06, No Iterations 2
smoothSolver:  Solving for k, Initial residual = 0.0159502, Final residual = 0.00133666, No Iterations 4
ExecutionTime = 44.19 s  ClockTime = 44 s

Time = 38

smoothSolver:  Solving for Ux, Initial residual = 0.00730656, Final residual = 0.000524109, No Iterations 6
smoothSolver:  Solving for Uy, Initial residual = 0.026371, Final residual = 0.00194577, No Iterations 5
GAMG:  Solving for p, Initial residual = 0.0222093, Final residual = 0.00219833, No Iterations 62
time step continuity errors : sum local = 0.000268115, global = 1.8639e-05, cumulative = 0.00286687
smoothSolver:  Solving for omega, Initial residual = 5.99103e-05, Final residual = 8.89189e-06, No Iterations 2
smoothSolver:  Solving for k, Initial residual = 0.0162775, Final residual = 0.00137532, No Iterations 4
ExecutionTime = 44.54 s  ClockTime = 45 s

Time = 39

smoothSolver:  Solving for Ux, Initial residual = 0.00699895, Final residual = 0.000503724, No Iterations 6
smoothSolver:  Solving for Uy, Initial residual = 0.025781, Final residual = 0.00189607, No Iterations 5
GAMG:  Solving for p, Initial residual = 0.0218678, Final residual = 0.00214927, No Iterations 64
time step continuity errors : sum local = 0.000258371, global = 1.8539e-05, cumulative = 0.00288541
smoothSolver:  Solving for omega, Initial residual = 5.70437e-05, Final residual = 8.5575e-06, No Iterations 2
smoothSolver:  Solving for k, Initial residual = 0.016538, Final residual = 0.00140519, No Iterations 4
ExecutionTime = 44.89 s  ClockTime = 45 s

Time = 40

smoothSolver:  Solving for Ux, Initial residual = 0.00670575, Final residual = 0.000483664, No Iterations 6
smoothSolver:  Solving for Uy, Initial residual = 0.0251925, Final residual = 0.0018502, No Iterations 5
GAMG:  Solving for p, Initial residual = 0.0216755, Final residual = 0.0021351, No Iterations 64
time step continuity errors : sum local = 0.000250318, global = 1.62352e-05, cumulative = 0.00290165
smoothSolver:  Solving for omega, Initial residual = 5.38689e-05, Final residual = 8.24526e-06, No Iterations 2
smoothSolver:  Solving for k, Initial residual = 0.0166953, Final residual = 0.00141463, No Iterations 4
ExecutionTime = 45.26 s  ClockTime = 45 s

Time = 41

smoothSolver:  Solving for Ux, Initial residual = 0.0064398, Final residual = 0.000463656, No Iterations 6
smoothSolver:  Solving for Uy, Initial residual = 0.0247061, Final residual = 0.001817, No Iterations 5
GAMG:  Solving for p, Initial residual = 0.022432, Final residual = 0.00221917, No Iterations 61
time step continuity errors : sum local = 0.000245678, global = 1.78445e-05, cumulative = 0.00291949
smoothSolver:  Solving for omega, Initial residual = 5.12559e-05, Final residual = 7.85091e-06, No Iterations 2
smoothSolver:  Solving for k, Initial residual = 0.0168472, Final residual = 0.00142146, No Iterations 4
ExecutionTime = 45.62 s  ClockTime = 46 s

Time = 42

smoothSolver:  Solving for Ux, Initial residual = 0.00615234, Final residual = 0.000444146, No Iterations 6
smoothSolver:  Solving for Uy, Initial residual = 0.0239842, Final residual = 0.00177717, No Iterations 5
GAMG:  Solving for p, Initial residual = 0.0222547, Final residual = 0.00221972, No Iterations 65
time step continuity errors : sum local = 0.000237587, global = 1.8602e-05, cumulative = 0.00293809
smoothSolver:  Solving for omega, Initial residual = 4.79295e-05, Final residual = 7.47529e-06, No Iterations 2
smoothSolver:  Solving for k, Initial residual = 0.016898, Final residual = 0.00141726, No Iterations 4
ExecutionTime = 45.99 s  ClockTime = 46 s

Time = 43

smoothSolver:  Solving for Ux, Initial residual = 0.00589147, Final residual = 0.000425229, No Iterations 6
smoothSolver:  Solving for Uy, Initial residual = 0.0232546, Final residual = 0.0017319, No Iterations 5
GAMG:  Solving for p, Initial residual = 0.022426, Final residual = 0.00224083, No Iterations 67
time step continuity errors : sum local = 0.000228145, global = 1.7866e-05, cumulative = 0.00295596
smoothSolver:  Solving for omega, Initial residual = 4.52977e-05, Final residual = 7.10886e-06, No Iterations 2
smoothSolver:  Solving for k, Initial residual = 0.0170052, Final residual = 0.00143149, No Iterations 4
ExecutionTime = 46.37 s  ClockTime = 47 s

Time = 44

smoothSolver:  Solving for Ux, Initial residual = 0.00565007, Final residual = 0.000406876, No Iterations 6
smoothSolver:  Solving for Uy, Initial residual = 0.0223739, Final residual = 0.00168794, No Iterations 5
GAMG:  Solving for p, Initial residual = 0.0228736, Final residual = 0.00228658, No Iterations 69
time step continuity errors : sum local = 0.000217481, global = -1.69666e-05, cumulative = 0.00293899
smoothSolver:  Solving for omega, Initial residual = 4.23593e-05, Final residual = 6.76606e-06, No Iterations 2
smoothSolver:  Solving for k, Initial residual = 0.0170505, Final residual = 0.0014304, No Iterations 4
ExecutionTime = 46.76 s  ClockTime = 47 s

Time = 45

smoothSolver:  Solving for Ux, Initial residual = 0.00541392, Final residual = 0.000389593, No Iterations 6
smoothSolver:  Solving for Uy, Initial residual = 0.0215832, Final residual = 0.00165151, No Iterations 5
GAMG:  Solving for p, Initial residual = 0.0233016, Final residual = 0.00231002, No Iterations 71
time step continuity errors : sum local = 0.000205116, global = -1.5691e-05, cumulative = 0.0029233
smoothSolver:  Solving for omega, Initial residual = 3.96802e-05, Final residual = 6.41479e-06, No Iterations 2
smoothSolver:  Solving for k, Initial residual = 0.0170525, Final residual = 0.00142959, No Iterations 4
ExecutionTime = 47.15 s  ClockTime = 47 s

Time = 46

smoothSolver:  Solving for Ux, Initial residual = 0.00518474, Final residual = 0.000372975, No Iterations 6
smoothSolver:  Solving for Uy, Initial residual = 0.0208742, Final residual = 0.00161669, No Iterations 5
GAMG:  Solving for p, Initial residual = 0.023617, Final residual = 0.00235597, No Iterations 72
time step continuity errors : sum local = 0.0001956, global = 1.53169e-05, cumulative = 0.00293862
smoothSolver:  Solving for omega, Initial residual = 3.71305e-05, Final residual = 6.08191e-06, No Iterations 2
smoothSolver:  Solving for k, Initial residual = 0.0171083, Final residual = 0.00143395, No Iterations 4
ExecutionTime = 47.55 s  ClockTime = 48 s

Time = 47

smoothSolver:  Solving for Ux, Initial residual = 0.00496165, Final residual = 0.000356978, No Iterations 6
smoothSolver:  Solving for Uy, Initial residual = 0.0202061, Final residual = 0.00158597, No Iterations 5
GAMG:  Solving for p, Initial residual = 0.0238816, Final residual = 0.00237367, No Iterations 74
time step continuity errors : sum local = 0.000185025, global = 1.42433e-05, cumulative = 0.00295286
smoothSolver:  Solving for omega, Initial residual = 3.48595e-05, Final residual = 5.75332e-06, No Iterations 2
smoothSolver:  Solving for k, Initial residual = 0.0170704, Final residual = 0.00142006, No Iterations 4
ExecutionTime = 47.96 s  ClockTime = 48 s

Time = 48

smoothSolver:  Solving for Ux, Initial residual = 0.00474602, Final residual = 0.000341398, No Iterations 6
smoothSolver:  Solving for Uy, Initial residual = 0.019535, Final residual = 0.00155445, No Iterations 5
GAMG:  Solving for p, Initial residual = 0.0240976, Final residual = 0.00238882, No Iterations 76
time step continuity errors : sum local = 0.000174152, global = 1.34576e-05, cumulative = 0.00296632
smoothSolver:  Solving for omega, Initial residual = 3.30575e-05, Final residual = 5.40673e-06, No Iterations 2
smoothSolver:  Solving for k, Initial residual = 0.0170031, Final residual = 0.00141512, No Iterations 4
ExecutionTime = 48.37 s  ClockTime = 49 s

Time = 49

smoothSolver:  Solving for Ux, Initial residual = 0.00453888, Final residual = 0.00032623, No Iterations 6
smoothSolver:  Solving for Uy, Initial residual = 0.0188859, Final residual = 0.00152701, No Iterations 5
GAMG:  Solving for p, Initial residual = 0.0244429, Final residual = 0.00243032, No Iterations 77
time step continuity errors : sum local = 0.000164395, global = -1.20997e-05, cumulative = 0.00295422
smoothSolver:  Solving for omega, Initial residual = 3.1378e-05, Final residual = 5.08681e-06, No Iterations 2
smoothSolver:  Solving for k, Initial residual = 0.0169546, Final residual = 0.00139955, No Iterations 4
ExecutionTime = 48.79 s  ClockTime = 49 s

Time = 50

smoothSolver:  Solving for Ux, Initial residual = 0.00433747, Final residual = 0.000311499, No Iterations 6
smoothSolver:  Solving for Uy, Initial residual = 0.0183149, Final residual = 0.00150288, No Iterations 5
GAMG:  Solving for p, Initial residual = 0.024834, Final residual = 0.00246763, No Iterations 79
time step continuity errors : sum local = 0.000154226, global = -1.15999e-05, cumulative = 0.00294262
smoothSolver:  Solving for omega, Initial residual = 2.98189e-05, Final residual = 4.80367e-06, No Iterations 2
smoothSolver:  Solving for k, Initial residual = 0.016842, Final residual = 0.00138199, No Iterations 4
ExecutionTime = 49.21 s  ClockTime = 49 s

Time = 51

smoothSolver:  Solving for Ux, Initial residual = 0.00414347, Final residual = 0.00029726, No Iterations 6
smoothSolver:  Solving for Uy, Initial residual = 0.017763, Final residual = 0.00147715, No Iterations 5
GAMG:  Solving for p, Initial residual = 0.0254271, Final residual = 0.00252582, No Iterations 81
time step continuity errors : sum local = 0.000144713, global = -1.10598e-05, cumulative = 0.00293156
smoothSolver:  Solving for omega, Initial residual = 2.86998e-05, Final residual = 9.99744e-06, No Iterations 1
smoothSolver:  Solving for k, Initial residual = 0.0168398, Final residual = 0.00137376, No Iterations 4
ExecutionTime = 49.64 s  ClockTime = 50 s

Time = 52

smoothSolver:  Solving for Ux, Initial residual = 0.00392497, Final residual = 0.00028177, No Iterations 6
smoothSolver:  Solving for Uy, Initial residual = 0.0172269, Final residual = 0.00145495, No Iterations 5
GAMG:  Solving for p, Initial residual = 0.0263389, Final residual = 0.00260152, No Iterations 85
time step continuity errors : sum local = 0.000134698, global = -1.06217e-05, cumulative = 0.00292094
smoothSolver:  Solving for omega, Initial residual = 2.97962e-05, Final residual = 4.55397e-06, No Iterations 2
smoothSolver:  Solving for k, Initial residual = 0.0167633, Final residual = 0.0013586, No Iterations 4
ExecutionTime = 50.09 s  ClockTime = 50 s

Time = 53

smoothSolver:  Solving for Ux, Initial residual = 0.0037574, Final residual = 0.000268344, No Iterations 6
smoothSolver:  Solving for Uy, Initial residual = 0.0166819, Final residual = 0.00142917, No Iterations 5
GAMG:  Solving for p, Initial residual = 0.0280298, Final residual = 0.00277386, No Iterations 85
time step continuity errors : sum local = 0.000125839, global = -1.00199e-05, cumulative = 0.00291092
smoothSolver:  Solving for omega, Initial residual = 2.734e-05, Final residual = 9.1841e-06, No Iterations 1
smoothSolver:  Solving for k, Initial residual = 0.0166948, Final residual = 0.00134646, No Iterations 4
ExecutionTime = 50.53 s  ClockTime = 51 s

Time = 54

smoothSolver:  Solving for Ux, Initial residual = 0.00356195, Final residual = 0.000253906, No Iterations 6
smoothSolver:  Solving for Uy, Initial residual = 0.0161254, Final residual = 0.00140167, No Iterations 5
GAMG:  Solving for p, Initial residual = 0.0305829, Final residual = 0.00304122, No Iterations 85
time step continuity errors : sum local = 0.00011831, global = -9.43342e-06, cumulative = 0.00290148
smoothSolver:  Solving for omega, Initial residual = 2.81438e-05, Final residual = 9.37129e-06, No Iterations 1
smoothSolver:  Solving for k, Initial residual = 0.0166716, Final residual = 0.0013426, No Iterations 4
ExecutionTime = 50.98 s  ClockTime = 51 s

Time = 55

smoothSolver:  Solving for Ux, Initial residual = 0.00338102, Final residual = 0.00024007, No Iterations 6
smoothSolver:  Solving for Uy, Initial residual = 0.0156091, Final residual = 0.00137499, No Iterations 5
GAMG:  Solving for p, Initial residual = 0.0346502, Final residual = 0.00342621, No Iterations 85
time step continuity errors : sum local = 0.000110143, global = -8.72133e-06, cumulative = 0.00289276
smoothSolver:  Solving for omega, Initial residual = 2.80673e-05, Final residual = 9.21406e-06, No Iterations 1
smoothSolver:  Solving for k, Initial residual = 0.0166414, Final residual = 0.00131808, No Iterations 4
ExecutionTime = 51.42 s  ClockTime = 52 s

Time = 56

smoothSolver:  Solving for Ux, Initial residual = 0.00321231, Final residual = 0.000226964, No Iterations 6
smoothSolver:  Solving for Uy, Initial residual = 0.0151026, Final residual = 0.00134636, No Iterations 5
GAMG:  Solving for p, Initial residual = 0.0413244, Final residual = 0.00409918, No Iterations 81
time step continuity errors : sum local = 0.000103747, global = -8.15113e-06, cumulative = 0.00288461
smoothSolver:  Solving for omega, Initial residual = 2.73732e-05, Final residual = 8.94027e-06, No Iterations 1
smoothSolver:  Solving for k, Initial residual = 0.0164347, Final residual = 0.00127111, No Iterations 4
ExecutionTime = 51.85 s  ClockTime = 52 s

Time = 57

smoothSolver:  Solving for Ux, Initial residual = 0.00305538, Final residual = 0.000214983, No Iterations 6
smoothSolver:  Solving for Uy, Initial residual = 0.0146321, Final residual = 0.00131928, No Iterations 5
GAMG:  Solving for p, Initial residual = 0.0474511, Final residual = 0.00471973, No Iterations 79
time step continuity errors : sum local = 9.74922e-05, global = -7.6712e-06, cumulative = 0.00287694
smoothSolver:  Solving for omega, Initial residual = 2.68559e-05, Final residual = 8.56895e-06, No Iterations 1
smoothSolver:  Solving for k, Initial residual = 0.0163286, Final residual = 0.00126524, No Iterations 4
ExecutionTime = 52.27 s  ClockTime = 52 s

Time = 58

smoothSolver:  Solving for Ux, Initial residual = 0.00291013, Final residual = 0.000203955, No Iterations 6
smoothSolver:  Solving for Uy, Initial residual = 0.0141999, Final residual = 0.00129218, No Iterations 5
GAMG:  Solving for p, Initial residual = 0.0367685, Final residual = 0.00367562, No Iterations 78
time step continuity errors : sum local = 9.19847e-05, global = 8.32353e-06, cumulative = 0.00288526
smoothSolver:  Solving for omega, Initial residual = 2.61842e-05, Final residual = 8.21897e-06, No Iterations 1
smoothSolver:  Solving for k, Initial residual = 0.0160938, Final residual = 0.00122534, No Iterations 4
ExecutionTime = 52.69 s  ClockTime = 53 s

Time = 59

smoothSolver:  Solving for Ux, Initial residual = 0.0027737, Final residual = 0.000193958, No Iterations 6
smoothSolver:  Solving for Uy, Initial residual = 0.0138076, Final residual = 0.0012656, No Iterations 5
GAMG:  Solving for p, Initial residual = 0.029517, Final residual = 0.00293815, No Iterations 79
time step continuity errors : sum local = 8.59532e-05, global = 8.25491e-06, cumulative = 0.00289352
smoothSolver:  Solving for omega, Initial residual = 2.56354e-05, Final residual = 7.88881e-06, No Iterations 1
smoothSolver:  Solving for k, Initial residual = 0.0158792, Final residual = 0.00118579, No Iterations 4
ExecutionTime = 53.11 s  ClockTime = 53 s

Time = 60

smoothSolver:  Solving for Ux, Initial residual = 0.00264917, Final residual = 0.00018538, No Iterations 6
smoothSolver:  Solving for Uy, Initial residual = 0.0134313, Final residual = 0.00123884, No Iterations 5
GAMG:  Solving for p, Initial residual = 0.0248192, Final residual = 0.00246692, No Iterations 85
time step continuity errors : sum local = 8.10047e-05, global = 8.87845e-06, cumulative = 0.0029024
smoothSolver:  Solving for omega, Initial residual = 2.50276e-05, Final residual = 7.50897e-06, No Iterations 1
smoothSolver:  Solving for k, Initial residual = 0.0156517, Final residual = 0.00117122, No Iterations 4
ExecutionTime = 53.55 s  ClockTime = 54 s

Time = 61

smoothSolver:  Solving for Ux, Initial residual = 0.00253618, Final residual = 0.000178131, No Iterations 6
smoothSolver:  Solving for Uy, Initial residual = 0.013082, Final residual = 0.0012137, No Iterations 5
GAMG:  Solving for p, Initial residual = 0.0215675, Final residual = 0.00214232, No Iterations 93
time step continuity errors : sum local = 7.66657e-05, global = 8.21352e-06, cumulative = 0.00291061
smoothSolver:  Solving for omega, Initial residual = 2.48082e-05, Final residual = 7.19974e-06, No Iterations 1
smoothSolver:  Solving for k, Initial residual = 0.0153196, Final residual = 0.00110097, No Iterations 4
ExecutionTime = 54.03 s  ClockTime = 54 s

Time = 62

smoothSolver:  Solving for Ux, Initial residual = 0.00243391, Final residual = 0.000169777, No Iterations 6
smoothSolver:  Solving for Uy, Initial residual = 0.0127274, Final residual = 0.00119025, No Iterations 5
GAMG:  Solving for p, Initial residual = 0.0172286, Final residual = 0.00170374, No Iterations 83
time step continuity errors : sum local = 7.16656e-05, global = 6.91851e-06, cumulative = 0.00291753
smoothSolver:  Solving for omega, Initial residual = 2.41671e-05, Final residual = 6.83386e-06, No Iterations 1
smoothSolver:  Solving for k, Initial residual = 0.0150579, Final residual = 0.001074, No Iterations 4
ExecutionTime = 54.47 s  ClockTime = 55 s

Time = 63

smoothSolver:  Solving for Ux, Initial residual = 0.00233825, Final residual = 0.000162493, No Iterations 6
smoothSolver:  Solving for Uy, Initial residual = 0.0123777, Final residual = 0.00116379, No Iterations 5
GAMG:  Solving for p, Initial residual = 0.0143704, Final residual = 0.00143371, No Iterations 68
time step continuity errors : sum local = 6.84164e-05, global = 6.5772e-06, cumulative = 0.00292411
smoothSolver:  Solving for omega, Initial residual = 2.33421e-05, Final residual = 6.46479e-06, No Iterations 1
smoothSolver:  Solving for k, Initial residual = 0.0147665, Final residual = 0.00104434, No Iterations 4
ExecutionTime = 54.84 s  ClockTime = 55 s

Time = 64

smoothSolver:  Solving for Ux, Initial residual = 0.00225167, Final residual = 0.000157745, No Iterations 6
smoothSolver:  Solving for Uy, Initial residual = 0.0121077, Final residual = 0.00114054, No Iterations 5
GAMG:  Solving for p, Initial residual = 0.0130458, Final residual = 0.00130051, No Iterations 73
time step continuity errors : sum local = 6.54151e-05, global = -6.75678e-06, cumulative = 0.00291735
smoothSolver:  Solving for omega, Initial residual = 2.25257e-05, Final residual = 6.09726e-06, No Iterations 1
smoothSolver:  Solving for k, Initial residual = 0.0145223, Final residual = 0.00100771, No Iterations 4
ExecutionTime = 55.25 s  ClockTime = 55 s

Time = 65

smoothSolver:  Solving for Ux, Initial residual = 0.00218664, Final residual = 0.000155027, No Iterations 6
smoothSolver:  Solving for Uy, Initial residual = 0.011885, Final residual = 0.00112176, No Iterations 5
GAMG:  Solving for p, Initial residual = 0.0121579, Final residual = 0.00120309, No Iterations 91
time step continuity errors : sum local = 6.21246e-05, global = -7.52365e-06, cumulative = 0.00290983
smoothSolver:  Solving for omega, Initial residual = 2.17908e-05, Final residual = 5.76312e-06, No Iterations 1
smoothSolver:  Solving for k, Initial residual = 0.0141992, Final residual = 0.000961535, No Iterations 4
ExecutionTime = 55.72 s  ClockTime = 56 s

Time = 66

smoothSolver:  Solving for Ux, Initial residual = 0.00213459, Final residual = 0.000152073, No Iterations 6
smoothSolver:  Solving for Uy, Initial residual = 0.0116179, Final residual = 0.00110116, No Iterations 5
GAMG:  Solving for p, Initial residual = 0.0110568, Final residual = 0.00109658, No Iterations 111
time step continuity errors : sum local = 5.91206e-05, global = -8.05816e-06, cumulative = 0.00290177
smoothSolver:  Solving for omega, Initial residual = 2.11723e-05, Final residual = 5.43853e-06, No Iterations 1
smoothSolver:  Solving for k, Initial residual = 0.0139554, Final residual = 0.000935729, No Iterations 4
ExecutionTime = 56.29 s  ClockTime = 56 s

Time = 67

smoothSolver:  Solving for Ux, Initial residual = 0.00207298, Final residual = 0.000147763, No Iterations 6
smoothSolver:  Solving for Uy, Initial residual = 0.0113145, Final residual = 0.0010796, No Iterations 5
GAMG:  Solving for p, Initial residual = 0.00977861, Final residual = 0.000974665, No Iterations 111
time step continuity errors : sum local = 5.63282e-05, global = -8.26631e-06, cumulative = 0.0028935
smoothSolver:  Solving for omega, Initial residual = 2.04853e-05, Final residual = 5.15585e-06, No Iterations 1
smoothSolver:  Solving for k, Initial residual = 0.0136225, Final residual = 0.000889597, No Iterations 4
ExecutionTime = 56.85 s  ClockTime = 57 s

Time = 68

smoothSolver:  Solving for Ux, Initial residual = 0.00201146, Final residual = 0.000143362, No Iterations 6
smoothSolver:  Solving for Uy, Initial residual = 0.0110087, Final residual = 0.00105609, No Iterations 5
GAMG:  Solving for p, Initial residual = 0.00860755, Final residual = 0.000857465, No Iterations 103
time step continuity errors : sum local = 5.36462e-05, global = -8.29245e-06, cumulative = 0.00288521
smoothSolver:  Solving for omega, Initial residual = 1.97254e-05, Final residual = 4.84843e-06, No Iterations 1
smoothSolver:  Solving for k, Initial residual = 0.0133688, Final residual = 0.000856253, No Iterations 4
ExecutionTime = 57.37 s  ClockTime = 58 s

Time = 69

smoothSolver:  Solving for Ux, Initial residual = 0.00195616, Final residual = 0.000139769, No Iterations 6
smoothSolver:  Solving for Uy, Initial residual = 0.010765, Final residual = 0.00103557, No Iterations 5
GAMG:  Solving for p, Initial residual = 0.00776021, Final residual = 0.000774456, No Iterations 98
time step continuity errors : sum local = 5.14401e-05, global = -8.46342e-06, cumulative = 0.00287675
smoothSolver:  Solving for omega, Initial residual = 1.88561e-05, Final residual = 4.55559e-06, No Iterations 1
smoothSolver:  Solving for k, Initial residual = 0.0130755, Final residual = 0.000823403, No Iterations 4
ExecutionTime = 57.86 s  ClockTime = 58 s

Time = 70

smoothSolver:  Solving for Ux, Initial residual = 0.00191486, Final residual = 0.000137385, No Iterations 6
smoothSolver:  Solving for Uy, Initial residual = 0.0105591, Final residual = 0.00101734, No Iterations 5
GAMG:  Solving for p, Initial residual = 0.00718954, Final residual = 0.000717568, No Iterations 104
time step continuity errors : sum local = 4.95796e-05, global = -8.53391e-06, cumulative = 0.00286821
smoothSolver:  Solving for omega, Initial residual = 1.81453e-05, Final residual = 4.31557e-06, No Iterations 1
smoothSolver:  Solving for k, Initial residual = 0.0127626, Final residual = 0.000784347, No Iterations 4
ExecutionTime = 58.39 s  ClockTime = 59 s

Time = 71

smoothSolver:  Solving for Ux, Initial residual = 0.00187328, Final residual = 0.000134881, No Iterations 6
smoothSolver:  Solving for Uy, Initial residual = 0.0103586, Final residual = 0.00100135, No Iterations 5
GAMG:  Solving for p, Initial residual = 0.00665858, Final residual = 0.00066573, No Iterations 107
time step continuity errors : sum local = 4.7667e-05, global = 8.14949e-06, cumulative = 0.00287636
smoothSolver:  Solving for omega, Initial residual = 1.74019e-05, Final residual = 4.0507e-06, No Iterations 1
smoothSolver:  Solving for k, Initial residual = 0.0125027, Final residual = 0.000759228, No Iterations 4
ExecutionTime = 58.93 s  ClockTime = 59 s

Time = 72

smoothSolver:  Solving for Ux, Initial residual = 0.00183415, Final residual = 0.000132371, No Iterations 6
smoothSolver:  Solving for Uy, Initial residual = 0.0101636, Final residual = 0.000983852, No Iterations 5
GAMG:  Solving for p, Initial residual = 0.00606318, Final residual = 0.000605283, No Iterations 106
time step continuity errors : sum local = 4.51812e-05, global = -7.85692e-06, cumulative = 0.0028685
smoothSolver:  Solving for omega, Initial residual = 1.67838e-05, Final residual = 3.82184e-06, No Iterations 1
smoothSolver:  Solving for k, Initial residual = 0.0122557, Final residual = 0.000724494, No Iterations 4
ExecutionTime = 59.46 s  ClockTime = 60 s

Time = 73

smoothSolver:  Solving for Ux, Initial residual = 0.00179321, Final residual = 0.000129704, No Iterations 6
smoothSolver:  Solving for Uy, Initial residual = 0.00997177, Final residual = 0.000967691, No Iterations 5
GAMG:  Solving for p, Initial residual = 0.00563983, Final residual = 0.000558578, No Iterations 93
time step continuity errors : sum local = 4.33742e-05, global = -7.22009e-06, cumulative = 0.00286128
smoothSolver:  Solving for omega, Initial residual = 1.60729e-05, Final residual = 3.60463e-06, No Iterations 1
smoothSolver:  Solving for k, Initial residual = 0.0120052, Final residual = 0.000693763, No Iterations 4
ExecutionTime = 59.94 s  ClockTime = 60 s

Time = 74

smoothSolver:  Solving for Ux, Initial residual = 0.00175397, Final residual = 0.000127204, No Iterations 6
smoothSolver:  Solving for Uy, Initial residual = 0.00979483, Final residual = 0.000951486, No Iterations 5
GAMG:  Solving for p, Initial residual = 0.00525053, Final residual = 0.000521378, No Iterations 82
time step continuity errors : sum local = 4.20875e-05, global = -6.86719e-06, cumulative = 0.00285442
smoothSolver:  Solving for omega, Initial residual = 1.53634e-05, Final residual = 3.39452e-06, No Iterations 1
smoothSolver:  Solving for k, Initial residual = 0.0117495, Final residual = 0.000659014, No Iterations 4
ExecutionTime = 60.37 s  ClockTime = 61 s

Time = 75

smoothSolver:  Solving for Ux, Initial residual = 0.00171997, Final residual = 0.000125067, No Iterations 6
smoothSolver:  Solving for Uy, Initial residual = 0.00965537, Final residual = 0.000936746, No Iterations 5
GAMG:  Solving for p, Initial residual = 0.00498803, Final residual = 0.00049699, No Iterations 80
time step continuity errors : sum local = 4.0844e-05, global = -6.65326e-06, cumulative = 0.00284776
smoothSolver:  Solving for omega, Initial residual = 1.4689e-05, Final residual = 3.19858e-06, No Iterations 1
smoothSolver:  Solving for k, Initial residual = 0.0115224, Final residual = 0.000639816, No Iterations 4
ExecutionTime = 60.8 s  ClockTime = 61 s

Time = 76

smoothSolver:  Solving for Ux, Initial residual = 0.00168576, Final residual = 0.000122821, No Iterations 6
smoothSolver:  Solving for Uy, Initial residual = 0.00951725, Final residual = 0.000923491, No Iterations 5
GAMG:  Solving for p, Initial residual = 0.00472321, Final residual = 0.00046965, No Iterations 80
time step continuity errors : sum local = 3.94387e-05, global = -6.58686e-06, cumulative = 0.00284118
smoothSolver:  Solving for omega, Initial residual = 1.40303e-05, Final residual = 3.01577e-06, No Iterations 1
smoothSolver:  Solving for k, Initial residual = 0.0112254, Final residual = 0.00108846, No Iterations 3
ExecutionTime = 61.22 s  ClockTime = 61 s

Time = 77

smoothSolver:  Solving for Ux, Initial residual = 0.00164707, Final residual = 0.00012025, No Iterations 6
smoothSolver:  Solving for Uy, Initial residual = 0.00936999, Final residual = 0.000910517, No Iterations 5
GAMG:  Solving for p, Initial residual = 0.0044736, Final residual = 0.000442176, No Iterations 80
time step continuity errors : sum local = 3.77357e-05, global = -6.53969e-06, cumulative = 0.00283464
smoothSolver:  Solving for omega, Initial residual = 1.33363e-05, Final residual = 2.83979e-06, No Iterations 1
smoothSolver:  Solving for k, Initial residual = 0.0109368, Final residual = 0.00104104, No Iterations 3
ExecutionTime = 61.65 s  ClockTime = 62 s

Time = 78

smoothSolver:  Solving for Ux, Initial residual = 0.00160915, Final residual = 0.000117646, No Iterations 6
smoothSolver:  Solving for Uy, Initial residual = 0.00921708, Final residual = 0.000897408, No Iterations 5
GAMG:  Solving for p, Initial residual = 0.00422511, Final residual = 0.000417355, No Iterations 78
time step continuity errors : sum local = 3.6369e-05, global = -6.53619e-06, cumulative = 0.0028281
smoothSolver:  Solving for omega, Initial residual = 1.27055e-05, Final residual = 2.68016e-06, No Iterations 1
smoothSolver:  Solving for k, Initial residual = 0.0106962, Final residual = 0.00100503, No Iterations 3
ExecutionTime = 62.07 s  ClockTime = 62 s

Time = 79

smoothSolver:  Solving for Ux, Initial residual = 0.0015713, Final residual = 0.000115043, No Iterations 6
smoothSolver:  Solving for Uy, Initial residual = 0.00906244, Final residual = 0.000883889, No Iterations 5
GAMG:  Solving for p, Initial residual = 0.00401042, Final residual = 0.000399629, No Iterations 76
time step continuity errors : sum local = 3.5332e-05, global = -6.50585e-06, cumulative = 0.00282159
smoothSolver:  Solving for omega, Initial residual = 1.21121e-05, Final residual = 2.52293e-06, No Iterations 1
smoothSolver:  Solving for k, Initial residual = 0.0104554, Final residual = 0.000964476, No Iterations 3
ExecutionTime = 62.48 s  ClockTime = 63 s

Time = 80

smoothSolver:  Solving for Ux, Initial residual = 0.00153457, Final residual = 0.000112411, No Iterations 6
smoothSolver:  Solving for Uy, Initial residual = 0.00892162, Final residual = 0.000871341, No Iterations 5
GAMG:  Solving for p, Initial residual = 0.00380207, Final residual = 0.000378143, No Iterations 76
time step continuity errors : sum local = 3.40312e-05, global = -6.43069e-06, cumulative = 0.00281516
smoothSolver:  Solving for omega, Initial residual = 1.15633e-05, Final residual = 2.39829e-06, No Iterations 1
smoothSolver:  Solving for k, Initial residual = 0.0101966, Final residual = 0.000926847, No Iterations 3
ExecutionTime = 62.89 s  ClockTime = 63 s

Time = 81

smoothSolver:  Solving for Ux, Initial residual = 0.00149676, Final residual = 0.000109734, No Iterations 6
smoothSolver:  Solving for Uy, Initial residual = 0.00880494, Final residual = 0.000859565, No Iterations 5
GAMG:  Solving for p, Initial residual = 0.00363639, Final residual = 0.000361287, No Iterations 74
time step continuity errors : sum local = 3.29448e-05, global = -6.28162e-06, cumulative = 0.00280888
smoothSolver:  Solving for omega, Initial residual = 1.10282e-05, Final residual = 2.27417e-06, No Iterations 1
smoothSolver:  Solving for k, Initial residual = 0.00994178, Final residual = 0.000886193, No Iterations 3
ExecutionTime = 63.28 s  ClockTime = 63 s

Time = 82

smoothSolver:  Solving for Ux, Initial residual = 0.0014599, Final residual = 0.000107026, No Iterations 6
smoothSolver:  Solving for Uy, Initial residual = 0.00867758, Final residual = 0.000848063, No Iterations 5
GAMG:  Solving for p, Initial residual = 0.00346406, Final residual = 0.000345771, No Iterations 72
time step continuity errors : sum local = 3.20211e-05, global = -6.09565e-06, cumulative = 0.00280279
smoothSolver:  Solving for omega, Initial residual = 1.0513e-05, Final residual = 2.1525e-06, No Iterations 1
smoothSolver:  Solving for k, Initial residual = 0.00974022, Final residual = 0.000855818, No Iterations 3
ExecutionTime = 63.67 s  ClockTime = 64 s

Time = 83

smoothSolver:  Solving for Ux, Initial residual = 0.00142215, Final residual = 0.000104326, No Iterations 6
smoothSolver:  Solving for Uy, Initial residual = 0.00855033, Final residual = 0.000836394, No Iterations 5
GAMG:  Solving for p, Initial residual = 0.00332157, Final residual = 0.000331845, No Iterations 70
time step continuity errors : sum local = 3.1067e-05, global = -5.8585e-06, cumulative = 0.00279693
smoothSolver:  Solving for omega, Initial residual = 1.0031e-05, Final residual = 2.04764e-06, No Iterations 1
smoothSolver:  Solving for k, Initial residual = 0.00949985, Final residual = 0.000826887, No Iterations 3
ExecutionTime = 64.06 s  ClockTime = 64 s

Time = 84

smoothSolver:  Solving for Ux, Initial residual = 0.0013836, Final residual = 0.000101626, No Iterations 6
smoothSolver:  Solving for Uy, Initial residual = 0.00842853, Final residual = 0.000824629, No Iterations 5
GAMG:  Solving for p, Initial residual = 0.00317264, Final residual = 0.000315126, No Iterations 69
time step continuity errors : sum local = 2.98823e-05, global = 4.87646e-06, cumulative = 0.0028018
smoothSolver:  Solving for omega, Initial residual = 9.57314e-06, Final residual = 9.57314e-06, No Iterations 0
smoothSolver:  Solving for k, Initial residual = 0.00940768, Final residual = 0.000795505, No Iterations 3
ExecutionTime = 64.44 s  ClockTime = 65 s

Time = 85

smoothSolver:  Solving for Ux, Initial residual = 0.00133307, Final residual = 9.81166e-05, No Iterations 6
smoothSolver:  Solving for Uy, Initial residual = 0.00836317, Final residual = 0.000816707, No Iterations 5
GAMG:  Solving for p, Initial residual = 0.00302734, Final residual = 0.000299066, No Iterations 71
time step continuity errors : sum local = 2.862e-05, global = 4.61583e-06, cumulative = 0.00280642
smoothSolver:  Solving for omega, Initial residual = 1.62996e-05, Final residual = 2.62493e-06, No Iterations 1
smoothSolver:  Solving for k, Initial residual = 0.00922735, Final residual = 0.000763386, No Iterations 3
ExecutionTime = 64.84 s  ClockTime = 65 s

Time = 86

smoothSolver:  Solving for Ux, Initial residual = 0.00129787, Final residual = 9.55463e-05, No Iterations 6
smoothSolver:  Solving for Uy, Initial residual = 0.00820943, Final residual = 0.000799717, No Iterations 5
GAMG:  Solving for p, Initial residual = 0.00290666, Final residual = 0.000287266, No Iterations 67
time step continuity errors : sum local = 2.78039e-05, global = 4.35537e-06, cumulative = 0.00281078
smoothSolver:  Solving for omega, Initial residual = 6.96125e-06, Final residual = 6.96125e-06, No Iterations 0
smoothSolver:  Solving for k, Initial residual = 0.00916279, Final residual = 0.000741889, No Iterations 3
ExecutionTime = 65.21 s  ClockTime = 65 s

Time = 87

smoothSolver:  Solving for Ux, Initial residual = 0.00124929, Final residual = 9.2117e-05, No Iterations 6
smoothSolver:  Solving for Uy, Initial residual = 0.00813184, Final residual = 0.000789442, No Iterations 5
GAMG:  Solving for p, Initial residual = 0.00279035, Final residual = 0.000278286, No Iterations 67
time step continuity errors : sum local = 2.71511e-05, global = 4.1521e-06, cumulative = 0.00281493
smoothSolver:  Solving for omega, Initial residual = 1.22756e-05, Final residual = 2.44012e-06, No Iterations 1
smoothSolver:  Solving for k, Initial residual = 0.00901528, Final residual = 0.000715578, No Iterations 3
ExecutionTime = 65.59 s  ClockTime = 66 s

Time = 88

smoothSolver:  Solving for Ux, Initial residual = 0.00121688, Final residual = 8.96171e-05, No Iterations 6
smoothSolver:  Solving for Uy, Initial residual = 0.00798417, Final residual = 0.000772302, No Iterations 5
GAMG:  Solving for p, Initial residual = 0.00270362, Final residual = 0.000269395, No Iterations 63
time step continuity errors : sum local = 2.6578e-05, global = 3.95244e-06, cumulative = 0.00281888
smoothSolver:  Solving for omega, Initial residual = 7.63259e-06, Final residual = 7.63259e-06, No Iterations 0
smoothSolver:  Solving for k, Initial residual = 0.0089519, Final residual = 0.000699531, No Iterations 3
ExecutionTime = 65.95 s  ClockTime = 66 s

Time = 89

smoothSolver:  Solving for Ux, Initial residual = 0.00117024, Final residual = 8.62188e-05, No Iterations 6
smoothSolver:  Solving for Uy, Initial residual = 0.0079188, Final residual = 0.000762325, No Iterations 5
GAMG:  Solving for p, Initial residual = 0.00261869, Final residual = 0.000261548, No Iterations 65
time step continuity errors : sum local = 2.59707e-05, global = 3.76668e-06, cumulative = 0.00282265
smoothSolver:  Solving for omega, Initial residual = 1.29043e-05, Final residual = 2.42118e-06, No Iterations 1
smoothSolver:  Solving for k, Initial residual = 0.00879855, Final residual = 0.000683468, No Iterations 3
ExecutionTime = 66.31 s  ClockTime = 66 s

Time = 90

smoothSolver:  Solving for Ux, Initial residual = 0.00113821, Final residual = 8.37547e-05, No Iterations 6
smoothSolver:  Solving for Uy, Initial residual = 0.00778905, Final residual = 0.000745838, No Iterations 5
GAMG:  Solving for p, Initial residual = 0.00255308, Final residual = 0.000252931, No Iterations 64
time step continuity errors : sum local = 2.535e-05, global = 3.55806e-06, cumulative = 0.00282621
smoothSolver:  Solving for omega, Initial residual = 6.50008e-06, Final residual = 6.50008e-06, No Iterations 0
smoothSolver:  Solving for k, Initial residual = 0.00868786, Final residual = 0.000662271, No Iterations 3
ExecutionTime = 66.67 s  ClockTime = 67 s

Time = 91

smoothSolver:  Solving for Ux, Initial residual = 0.00109257, Final residual = 8.04612e-05, No Iterations 6
smoothSolver:  Solving for Uy, Initial residual = 0.00771177, Final residual = 0.000734895, No Iterations 5
GAMG:  Solving for p, Initial residual = 0.00246197, Final residual = 0.000243191, No Iterations 68
time step continuity errors : sum local = 2.45174e-05, global = 3.33187e-06, cumulative = 0.00282954
smoothSolver:  Solving for omega, Initial residual = 1.10935e-05, Final residual = 2.28023e-06, No Iterations 1
smoothSolver:  Solving for k, Initial residual = 0.0084741, Final residual = 0.000637115, No Iterations 3
ExecutionTime = 67.04 s  ClockTime = 67 s

Time = 92

smoothSolver:  Solving for Ux, Initial residual = 0.00106302, Final residual = 7.80819e-05, No Iterations 6
smoothSolver:  Solving for Uy, Initial residual = 0.007569, Final residual = 0.000718586, No Iterations 5
GAMG:  Solving for p, Initial residual = 0.00239399, Final residual = 0.000235849, No Iterations 62
time step continuity errors : sum local = 2.40286e-05, global = 3.14097e-06, cumulative = 0.00283268
smoothSolver:  Solving for omega, Initial residual = 6.54055e-06, Final residual = 6.54055e-06, No Iterations 0
smoothSolver:  Solving for k, Initial residual = 0.00841351, Final residual = 0.000623599, No Iterations 3
ExecutionTime = 67.38 s  ClockTime = 68 s

Time = 93

smoothSolver:  Solving for Ux, Initial residual = 0.00101979, Final residual = 7.49141e-05, No Iterations 6
smoothSolver:  Solving for Uy, Initial residual = 0.00747444, Final residual = 0.000706616, No Iterations 5
GAMG:  Solving for p, Initial residual = 0.00230925, Final residual = 0.000230312, No Iterations 64
time step continuity errors : sum local = 2.35689e-05, global = 2.9818e-06, cumulative = 0.00283566
smoothSolver:  Solving for omega, Initial residual = 1.0662e-05, Final residual = 2.17542e-06, No Iterations 1
smoothSolver:  Solving for k, Initial residual = 0.00822108, Final residual = 0.000605845, No Iterations 3
ExecutionTime = 67.75 s  ClockTime = 68 s

Time = 94

smoothSolver:  Solving for Ux, Initial residual = 0.000991773, Final residual = 7.26193e-05, No Iterations 6
smoothSolver:  Solving for Uy, Initial residual = 0.00732741, Final residual = 0.000690785, No Iterations 5
GAMG:  Solving for p, Initial residual = 0.00225511, Final residual = 0.000224114, No Iterations 60
time step continuity errors : sum local = 2.31128e-05, global = 2.8459e-06, cumulative = 0.00283851
smoothSolver:  Solving for omega, Initial residual = 5.94091e-06, Final residual = 5.94091e-06, No Iterations 0
smoothSolver:  Solving for k, Initial residual = 0.00808775, Final residual = 0.000582717, No Iterations 3
ExecutionTime = 68.08 s  ClockTime = 68 s

Time = 95

smoothSolver:  Solving for Ux, Initial residual = 0.000951508, Final residual = 6.96612e-05, No Iterations 6
smoothSolver:  Solving for Uy, Initial residual = 0.00722101, Final residual = 0.000678629, No Iterations 5
GAMG:  Solving for p, Initial residual = 0.0021839, Final residual = 0.000217724, No Iterations 62
time step continuity errors : sum local = 2.25228e-05, global = 2.7214e-06, cumulative = 0.00284123
smoothSolver:  Solving for omega, Initial residual = 9.59474e-06, Final residual = 9.59474e-06, No Iterations 0
smoothSolver:  Solving for k, Initial residual = 0.00803496, Final residual = 0.000575429, No Iterations 3
ExecutionTime = 68.43 s  ClockTime = 69 s

Time = 96

smoothSolver:  Solving for Ux, Initial residual = 0.000916572, Final residual = 6.68091e-05, No Iterations 6
smoothSolver:  Solving for Uy, Initial residual = 0.00710336, Final residual = 0.000664286, No Iterations 5
GAMG:  Solving for p, Initial residual = 0.00213675, Final residual = 0.00021217, No Iterations 64
time step continuity errors : sum local = 2.20859e-05, global = 2.62103e-06, cumulative = 0.00284385
smoothSolver:  Solving for omega, Initial residual = 1.29981e-05, Final residual = 2.43888e-06, No Iterations 1
smoothSolver:  Solving for k, Initial residual = 0.00781449, Final residual = 0.000550563, No Iterations 3
ExecutionTime = 68.81 s  ClockTime = 69 s

Time = 97

smoothSolver:  Solving for Ux, Initial residual = 0.000891964, Final residual = 6.47551e-05, No Iterations 6
smoothSolver:  Solving for Uy, Initial residual = 0.00696574, Final residual = 0.000649404, No Iterations 5
GAMG:  Solving for p, Initial residual = 0.00209308, Final residual = 0.000208884, No Iterations 58
time step continuity errors : sum local = 2.18611e-05, global = 2.5311e-06, cumulative = 0.00284638
smoothSolver:  Solving for omega, Initial residual = 5.93087e-06, Final residual = 5.93087e-06, No Iterations 0
smoothSolver:  Solving for k, Initial residual = 0.00767667, Final residual = 0.000535751, No Iterations 3
ExecutionTime = 69.15 s  ClockTime = 69 s

Time = 98

smoothSolver:  Solving for Ux, Initial residual = 0.000859353, Final residual = 6.21167e-05, No Iterations 6
smoothSolver:  Solving for Uy, Initial residual = 0.00685731, Final residual = 0.000636264, No Iterations 5
GAMG:  Solving for p, Initial residual = 0.00203193, Final residual = 0.000199834, No Iterations 62
time step continuity errors : sum local = 2.10437e-05, global = 2.3885e-06, cumulative = 0.00284877
smoothSolver:  Solving for omega, Initial residual = 7.42103e-06, Final residual = 7.42103e-06, No Iterations 0
smoothSolver:  Solving for k, Initial residual = 0.00762915, Final residual = 0.00052314, No Iterations 3
ExecutionTime = 69.49 s  ClockTime = 70 s

Time = 99

smoothSolver:  Solving for Ux, Initial residual = 0.000829912, Final residual = 5.95835e-05, No Iterations 6
smoothSolver:  Solving for Uy, Initial residual = 0.00675906, Final residual = 0.000623138, No Iterations 5
GAMG:  Solving for p, Initial residual = 0.00197389, Final residual = 0.000196331, No Iterations 62
time step continuity errors : sum local = 2.07324e-05, global = 2.28225e-06, cumulative = 0.00285105
smoothSolver:  Solving for omega, Initial residual = 1.02314e-05, Final residual = 2.24113e-06, No Iterations 1
smoothSolver:  Solving for k, Initial residual = 0.00734384, Final residual = 0.000491357, No Iterations 3
ExecutionTime = 69.85 s  ClockTime = 70 s

Time = 100

smoothSolver:  Solving for Ux, Initial residual = 0.000806151, Final residual = 5.77272e-05, No Iterations 6
smoothSolver:  Solving for Uy, Initial residual = 0.00663214, Final residual = 0.000609736, No Iterations 5
GAMG:  Solving for p, Initial residual = 0.00193743, Final residual = 0.000192727, No Iterations 56
time step continuity errors : sum local = 2.0497e-05, global = 2.19911e-06, cumulative = 0.00285325
smoothSolver:  Solving for omega, Initial residual = 5.16682e-06, Final residual = 5.16682e-06, No Iterations 0
smoothSolver:  Solving for k, Initial residual = 0.00719157, Final residual = 0.000479545, No Iterations 3
ExecutionTime = 70.18 s  ClockTime = 70 s

Time = 101

smoothSolver:  Solving for Ux, Initial residual = 0.000779354, Final residual = 5.53974e-05, No Iterations 6
smoothSolver:  Solving for Uy, Initial residual = 0.00652707, Final residual = 0.000596741, No Iterations 5
GAMG:  Solving for p, Initial residual = 0.00188079, Final residual = 0.000185929, No Iterations 58
time step continuity errors : sum local = 1.98206e-05, global = 2.07787e-06, cumulative = 0.00285533
smoothSolver:  Solving for omega, Initial residual = 7.48343e-06, Final residual = 7.48343e-06, No Iterations 0
smoothSolver:  Solving for k, Initial residual = 0.00706452, Final residual = 0.000457427, No Iterations 3
ExecutionTime = 70.51 s  ClockTime = 71 s

Time = 102

smoothSolver:  Solving for Ux, Initial residual = 0.000753848, Final residual = 5.31601e-05, No Iterations 6
smoothSolver:  Solving for Uy, Initial residual = 0.00643104, Final residual = 0.000583832, No Iterations 5
GAMG:  Solving for p, Initial residual = 0.00182981, Final residual = 0.000181989, No Iterations 58
time step continuity errors : sum local = 1.95231e-05, global = 1.99674e-06, cumulative = 0.00285732
smoothSolver:  Solving for omega, Initial residual = 9.7857e-06, Final residual = 9.7857e-06, No Iterations 0
smoothSolver:  Solving for k, Initial residual = 0.00698504, Final residual = 0.000448608, No Iterations 3
ExecutionTime = 70.84 s  ClockTime = 71 s

Time = 103

smoothSolver:  Solving for Ux, Initial residual = 0.000729616, Final residual = 5.10162e-05, No Iterations 6
smoothSolver:  Solving for Uy, Initial residual = 0.00633871, Final residual = 0.000571182, No Iterations 5
GAMG:  Solving for p, Initial residual = 0.00180205, Final residual = 0.000178787, No Iterations 58
time step continuity errors : sum local = 1.92238e-05, global = 1.92218e-06, cumulative = 0.00285925
smoothSolver:  Solving for omega, Initial residual = 1.19089e-05, Final residual = 2.3755e-06, No Iterations 1
smoothSolver:  Solving for k, Initial residual = 0.0066273, Final residual = 0.000415261, No Iterations 3
ExecutionTime = 71.18 s  ClockTime = 71 s

Time = 104

smoothSolver:  Solving for Ux, Initial residual = 0.000708696, Final residual = 4.94927e-05, No Iterations 6
smoothSolver:  Solving for Uy, Initial residual = 0.00623412, Final residual = 0.000559682, No Iterations 5
GAMG:  Solving for p, Initial residual = 0.00178418, Final residual = 0.000176512, No Iterations 52
time step continuity errors : sum local = 1.9133e-05, global = 1.87874e-06, cumulative = 0.00286112
smoothSolver:  Solving for omega, Initial residual = 5.93833e-06, Final residual = 5.93833e-06, No Iterations 0
smoothSolver:  Solving for k, Initial residual = 0.00644134, Final residual = 0.000400169, No Iterations 3
ExecutionTime = 71.49 s  ClockTime = 72 s

Time = 105

smoothSolver:  Solving for Ux, Initial residual = 0.000686689, Final residual = 4.75696e-05, No Iterations 6
smoothSolver:  Solving for Uy, Initial residual = 0.00612537, Final residual = 0.000545863, No Iterations 5
GAMG:  Solving for p, Initial residual = 0.0017182, Final residual = 0.000170096, No Iterations 54
time step continuity errors : sum local = 1.84713e-05, global = 1.78021e-06, cumulative = 0.0028629
smoothSolver:  Solving for omega, Initial residual = 6.05147e-06, Final residual = 6.05147e-06, No Iterations 0
smoothSolver:  Solving for k, Initial residual = 0.00629665, Final residual = 0.000384172, No Iterations 3
ExecutionTime = 71.81 s  ClockTime = 72 s

Time = 106

smoothSolver:  Solving for Ux, Initial residual = 0.000666334, Final residual = 4.57413e-05, No Iterations 6
smoothSolver:  Solving for Uy, Initial residual = 0.00603234, Final residual = 0.00053424, No Iterations 5
GAMG:  Solving for p, Initial residual = 0.00166335, Final residual = 0.000165896, No Iterations 54
time step continuity errors : sum local = 1.81266e-05, global = 1.7191e-06, cumulative = 0.00286462
smoothSolver:  Solving for omega, Initial residual = 7.20348e-06, Final residual = 7.20348e-06, No Iterations 0
smoothSolver:  Solving for k, Initial residual = 0.00618493, Final residual = 0.00037509, No Iterations 3
ExecutionTime = 72.12 s  ClockTime = 72 s

Time = 107

smoothSolver:  Solving for Ux, Initial residual = 0.000647742, Final residual = 4.40115e-05, No Iterations 6
smoothSolver:  Solving for Uy, Initial residual = 0.00593888, Final residual = 0.000522329, No Iterations 5
GAMG:  Solving for p, Initial residual = 0.00162802, Final residual = 0.000160776, No Iterations 56
time step continuity errors : sum local = 1.76003e-05, global = 1.64728e-06, cumulative = 0.00286627
smoothSolver:  Solving for omega, Initial residual = 8.70382e-06, Final residual = 8.70382e-06, No Iterations 0
smoothSolver:  Solving for k, Initial residual = 0.00603613, Final residual = 0.000360272, No Iterations 3
ExecutionTime = 72.45 s  ClockTime = 73 s

Time = 108

smoothSolver:  Solving for Ux, Initial residual = 0.000629726, Final residual = 4.23513e-05, No Iterations 6
smoothSolver:  Solving for Uy, Initial residual = 0.00585581, Final residual = 0.000511555, No Iterations 5
GAMG:  Solving for p, Initial residual = 0.00159047, Final residual = 0.000156885, No Iterations 56
time step continuity errors : sum local = 1.72854e-05, global = 1.60543e-06, cumulative = 0.00286788
smoothSolver:  Solving for omega, Initial residual = 1.01147e-05, Final residual = 2.27137e-06, No Iterations 1
smoothSolver:  Solving for k, Initial residual = 0.00566318, Final residual = 0.000322766, No Iterations 3
ExecutionTime = 72.78 s  ClockTime = 73 s

Time = 109

smoothSolver:  Solving for Ux, Initial residual = 0.000615281, Final residual = 4.12159e-05, No Iterations 6
smoothSolver:  Solving for Uy, Initial residual = 0.00577262, Final residual = 0.000502664, No Iterations 5
GAMG:  Solving for p, Initial residual = 0.00160091, Final residual = 0.000159155, No Iterations 50
time step continuity errors : sum local = 1.75638e-05, global = 1.65761e-06, cumulative = 0.00286953
smoothSolver:  Solving for omega, Initial residual = 5.41579e-06, Final residual = 5.41579e-06, No Iterations 0
smoothSolver:  Solving for k, Initial residual = 0.0054255, Final residual = 0.000310843, No Iterations 3
ExecutionTime = 73.09 s  ClockTime = 73 s

Time = 110

smoothSolver:  Solving for Ux, Initial residual = 0.000598785, Final residual = 3.98189e-05, No Iterations 6
smoothSolver:  Solving for Uy, Initial residual = 0.00565937, Final residual = 0.000489696, No Iterations 5
GAMG:  Solving for p, Initial residual = 0.00152732, Final residual = 0.000149627, No Iterations 56
time step continuity errors : sum local = 1.66273e-05, global = 1.59055e-06, cumulative = 0.00287112
smoothSolver:  Solving for omega, Initial residual = 5.42546e-06, Final residual = 5.42546e-06, No Iterations 0
smoothSolver:  Solving for k, Initial residual = 0.00527635, Final residual = 0.00029857, No Iterations 3
ExecutionTime = 73.42 s  ClockTime = 74 s

Time = 111

smoothSolver:  Solving for Ux, Initial residual = 0.000585852, Final residual = 3.85155e-05, No Iterations 6
smoothSolver:  Solving for Uy, Initial residual = 0.00557451, Final residual = 0.000479493, No Iterations 5
GAMG:  Solving for p, Initial residual = 0.00149096, Final residual = 0.00014792, No Iterations 56
time step continuity errors : sum local = 1.64925e-05, global = 1.58118e-06, cumulative = 0.00287271
smoothSolver:  Solving for omega, Initial residual = 6.17199e-06, Final residual = 6.17199e-06, No Iterations 0
smoothSolver:  Solving for k, Initial residual = 0.00511594, Final residual = 0.000281969, No Iterations 3
ExecutionTime = 73.75 s  ClockTime = 74 s

Time = 112

smoothSolver:  Solving for Ux, Initial residual = 0.000574952, Final residual = 3.73443e-05, No Iterations 6
smoothSolver:  Solving for Uy, Initial residual = 0.00549417, Final residual = 0.000470053, No Iterations 5
GAMG:  Solving for p, Initial residual = 0.00145489, Final residual = 0.000143782, No Iterations 58
[...]
GAMG:  Solving for p, Initial residual = 2.56214e-05, Final residual = 2.23723e-06, No Iterations 1
time step continuity errors : sum local = 2.72911e-07, global = 2.81659e-09, cumulative = 0.0029399
smoothSolver:  Solving for omega, Initial residual = 7.5238e-06, Final residual = 7.5238e-06, No Iterations 0
smoothSolver:  Solving for k, Initial residual = 9.14656e-06, Final residual = 9.14656e-06, No Iterations 0
ExecutionTime = 330.89 s  ClockTime = 331 s

Time = 1687

smoothSolver:  Solving for Ux, Initial residual = 4.29362e-06, Final residual = 4.29362e-06, No Iterations 0
smoothSolver:  Solving for Uy, Initial residual = 4.20021e-05, Final residual = 3.23783e-06, No Iterations 1
GAMG:  Solving for p, Initial residual = 2.45781e-05, Final residual = 2.20992e-06, No Iterations 1
time step continuity errors : sum local = 2.6958e-07, global = 1.24836e-09, cumulative = 0.0029399
smoothSolver:  Solving for omega, Initial residual = 7.52382e-06, Final residual = 7.52382e-06, No Iterations 0
smoothSolver:  Solving for k, Initial residual = 9.1204e-06, Final residual = 9.1204e-06, No Iterations 0
ExecutionTime = 330.97 s  ClockTime = 331 s

Time = 1688

smoothSolver:  Solving for Ux, Initial residual = 4.1248e-06, Final residual = 4.1248e-06, No Iterations 0
smoothSolver:  Solving for Uy, Initial residual = 4.04356e-05, Final residual = 3.15954e-06, No Iterations 1
GAMG:  Solving for p, Initial residual = 2.3569e-05, Final residual = 2.12612e-06, No Iterations 1
time step continuity errors : sum local = 2.59357e-07, global = 3.01817e-09, cumulative = 0.0029399
smoothSolver:  Solving for omega, Initial residual = 7.52382e-06, Final residual = 7.52382e-06, No Iterations 0
smoothSolver:  Solving for k, Initial residual = 9.49622e-06, Final residual = 9.49622e-06, No Iterations 0
ExecutionTime = 331.05 s  ClockTime = 331 s

Time = 1689

smoothSolver:  Solving for Ux, Initial residual = 3.95101e-06, Final residual = 3.95101e-06, No Iterations 0
smoothSolver:  Solving for Uy, Initial residual = 3.8984e-05, Final residual = 3.05195e-06, No Iterations 1
GAMG:  Solving for p, Initial residual = 2.26982e-05, Final residual = 2.08934e-06, No Iterations 1
time step continuity errors : sum local = 2.5487e-07, global = 3.13448e-09, cumulative = 0.0029399
smoothSolver:  Solving for omega, Initial residual = 7.52382e-06, Final residual = 7.52382e-06, No Iterations 0
smoothSolver:  Solving for k, Initial residual = 9.61302e-06, Final residual = 9.61302e-06, No Iterations 0
ExecutionTime = 331.14 s  ClockTime = 331 s

Time = 1690

smoothSolver:  Solving for Ux, Initial residual = 3.78372e-06, Final residual = 3.78372e-06, No Iterations 0
smoothSolver:  Solving for Uy, Initial residual = 3.74863e-05, Final residual = 2.94173e-06, No Iterations 1
GAMG:  Solving for p, Initial residual = 2.17089e-05, Final residual = 1.99227e-06, No Iterations 1
time step continuity errors : sum local = 2.43029e-07, global = 2.14397e-09, cumulative = 0.00293991
smoothSolver:  Solving for omega, Initial residual = 7.52382e-06, Final residual = 7.52382e-06, No Iterations 0
smoothSolver:  Solving for k, Initial residual = 9.33288e-06, Final residual = 9.33288e-06, No Iterations 0
ExecutionTime = 331.22 s  ClockTime = 332 s

Time = 1691

smoothSolver:  Solving for Ux, Initial residual = 3.63046e-06, Final residual = 3.63046e-06, No Iterations 0
smoothSolver:  Solving for Uy, Initial residual = 3.59441e-05, Final residual = 2.8382e-06, No Iterations 1
GAMG:  Solving for p, Initial residual = 2.06535e-05, Final residual = 1.92377e-06, No Iterations 1
time step continuity errors : sum local = 2.34673e-07, global = 2.73027e-09, cumulative = 0.00293991
smoothSolver:  Solving for omega, Initial residual = 7.52384e-06, Final residual = 7.52384e-06, No Iterations 0
smoothSolver:  Solving for k, Initial residual = 9.0946e-06, Final residual = 9.0946e-06, No Iterations 0
ExecutionTime = 331.31 s  ClockTime = 332 s

Time = 1692

smoothSolver:  Solving for Ux, Initial residual = 3.47719e-06, Final residual = 3.47719e-06, No Iterations 0
smoothSolver:  Solving for Uy, Initial residual = 3.43807e-05, Final residual = 2.7592e-06, No Iterations 1
GAMG:  Solving for p, Initial residual = 1.96992e-05, Final residual = 1.87173e-06, No Iterations 1
time step continuity errors : sum local = 2.28326e-07, global = 1.47419e-09, cumulative = 0.00293991
smoothSolver:  Solving for omega, Initial residual = 7.52385e-06, Final residual = 7.52385e-06, No Iterations 0
smoothSolver:  Solving for k, Initial residual = 9.27686e-06, Final residual = 9.27686e-06, No Iterations 0
ExecutionTime = 331.39 s  ClockTime = 332 s

Time = 1693

smoothSolver:  Solving for Ux, Initial residual = 3.32603e-06, Final residual = 3.32603e-06, No Iterations 0
smoothSolver:  Solving for Uy, Initial residual = 3.27882e-05, Final residual = 2.65461e-06, No Iterations 1
GAMG:  Solving for p, Initial residual = 1.87668e-05, Final residual = 1.79572e-06, No Iterations 1
time step continuity errors : sum local = 2.19052e-07, global = 3.04458e-09, cumulative = 0.00293991
smoothSolver:  Solving for omega, Initial residual = 7.52385e-06, Final residual = 7.52385e-06, No Iterations 0
smoothSolver:  Solving for k, Initial residual = 9.50573e-06, Final residual = 9.50573e-06, No Iterations 0
ExecutionTime = 331.47 s  ClockTime = 332 s

Time = 1694

smoothSolver:  Solving for Ux, Initial residual = 3.16962e-06, Final residual = 3.16962e-06, No Iterations 0
smoothSolver:  Solving for Uy, Initial residual = 3.13745e-05, Final residual = 2.54232e-06, No Iterations 1
GAMG:  Solving for p, Initial residual = 1.78299e-05, Final residual = 1.75797e-06, No Iterations 1
time step continuity errors : sum local = 2.14447e-07, global = 1.88222e-09, cumulative = 0.00293992
smoothSolver:  Solving for omega, Initial residual = 7.52385e-06, Final residual = 7.52385e-06, No Iterations 0
smoothSolver:  Solving for k, Initial residual = 9.45158e-06, Final residual = 9.45158e-06, No Iterations 0
ExecutionTime = 331.56 s  ClockTime = 332 s

Time = 1695

smoothSolver:  Solving for Ux, Initial residual = 3.01396e-06, Final residual = 3.01396e-06, No Iterations 0
smoothSolver:  Solving for Uy, Initial residual = 2.99606e-05, Final residual = 2.42875e-06, No Iterations 1
GAMG:  Solving for p, Initial residual = 1.68322e-05, Final residual = 1.6595e-06, No Iterations 1
time step continuity errors : sum local = 2.02436e-07, global = 2.46353e-09, cumulative = 0.00293992
smoothSolver:  Solving for omega, Initial residual = 7.52386e-06, Final residual = 7.52386e-06, No Iterations 0
smoothSolver:  Solving for k, Initial residual = 9.186e-06, Final residual = 9.186e-06, No Iterations 0
ExecutionTime = 331.64 s  ClockTime = 332 s

Time = 1696

smoothSolver:  Solving for Ux, Initial residual = 2.85877e-06, Final residual = 2.85877e-06, No Iterations 0
smoothSolver:  Solving for Uy, Initial residual = 2.84777e-05, Final residual = 2.33005e-06, No Iterations 1
GAMG:  Solving for p, Initial residual = 1.59056e-05, Final residual = 1.28389e-06, No Iterations 3
time step continuity errors : sum local = 1.56617e-07, global = 1.23952e-08, cumulative = 0.00293993
smoothSolver:  Solving for omega, Initial residual = 7.52383e-06, Final residual = 7.52383e-06, No Iterations 0
smoothSolver:  Solving for k, Initial residual = 9.1593e-06, Final residual = 9.1593e-06, No Iterations 0
ExecutionTime = 331.73 s  ClockTime = 332 s

Time = 1697

smoothSolver:  Solving for Ux, Initial residual = 2.69887e-06, Final residual = 2.69887e-06, No Iterations 0
smoothSolver:  Solving for Uy, Initial residual = 2.7385e-05, Final residual = 2.40188e-06, No Iterations 1
GAMG:  Solving for p, Initial residual = 1.52502e-05, Final residual = 8.90998e-07, No Iterations 3
time step continuity errors : sum local = 1.08689e-07, global = -1.02149e-08, cumulative = 0.00293992
smoothSolver:  Solving for omega, Initial residual = 7.52388e-06, Final residual = 7.52388e-06, No Iterations 0
smoothSolver:  Solving for k, Initial residual = 9.342e-06, Final residual = 9.342e-06, No Iterations 0
ExecutionTime = 331.82 s  ClockTime = 332 s

Time = 1698

smoothSolver:  Solving for Ux, Initial residual = 2.56457e-06, Final residual = 2.56457e-06, No Iterations 0
smoothSolver:  Solving for Uy, Initial residual = 2.60318e-05, Final residual = 2.4039e-06, No Iterations 1
GAMG:  Solving for p, Initial residual = 1.42038e-05, Final residual = 9.04511e-07, No Iterations 3
time step continuity errors : sum local = 1.10338e-07, global = -8.88838e-09, cumulative = 0.00293991
smoothSolver:  Solving for omega, Initial residual = 7.52384e-06, Final residual = 7.52384e-06, No Iterations 0
smoothSolver:  Solving for k, Initial residual = 9.43057e-06, Final residual = 9.43057e-06, No Iterations 0
ExecutionTime = 331.92 s  ClockTime = 332 s

Time = 1699

smoothSolver:  Solving for Ux, Initial residual = 2.43975e-06, Final residual = 2.43975e-06, No Iterations 0
smoothSolver:  Solving for Uy, Initial residual = 2.45185e-05, Final residual = 2.18541e-06, No Iterations 1
GAMG:  Solving for p, Initial residual = 1.34808e-05, Final residual = 7.571e-07, No Iterations 3
time step continuity errors : sum local = 9.23558e-08, global = -7.61104e-09, cumulative = 0.0029399
smoothSolver:  Solving for omega, Initial residual = 7.52389e-06, Final residual = 7.52389e-06, No Iterations 0
smoothSolver:  Solving for k, Initial residual = 9.30368e-06, Final residual = 9.30368e-06, No Iterations 0
ExecutionTime = 332.01 s  ClockTime = 332 s

Time = 1700

smoothSolver:  Solving for Ux, Initial residual = 2.31799e-06, Final residual = 2.31799e-06, No Iterations 0
smoothSolver:  Solving for Uy, Initial residual = 2.32706e-05, Final residual = 2.16016e-06, No Iterations 1
GAMG:  Solving for p, Initial residual = 1.25658e-05, Final residual = 1.12764e-06, No Iterations 2
time step continuity errors : sum local = 1.37557e-07, global = 1.27898e-08, cumulative = 0.00293992
smoothSolver:  Solving for omega, Initial residual = 7.52387e-06, Final residual = 7.52387e-06, No Iterations 0
smoothSolver:  Solving for k, Initial residual = 9.16469e-06, Final residual = 9.16469e-06, No Iterations 0
ExecutionTime = 332.1 s  ClockTime = 332 s

Time = 1701

smoothSolver:  Solving for Ux, Initial residual = 2.1966e-06, Final residual = 2.1966e-06, No Iterations 0
smoothSolver:  Solving for Uy, Initial residual = 2.17709e-05, Final residual = 1.94725e-06, No Iterations 1
GAMG:  Solving for p, Initial residual = 1.17421e-05, Final residual = 1.0534e-06, No Iterations 2
time step continuity errors : sum local = 1.285e-07, global = 7.39876e-09, cumulative = 0.00293992
smoothSolver:  Solving for omega, Initial residual = 7.52386e-06, Final residual = 7.52386e-06, No Iterations 0
smoothSolver:  Solving for k, Initial residual = 9.2352e-06, Final residual = 9.2352e-06, No Iterations 0
ExecutionTime = 332.19 s  ClockTime = 332 s

Time = 1702

smoothSolver:  Solving for Ux, Initial residual = 2.07521e-06, Final residual = 2.07521e-06, No Iterations 0
smoothSolver:  Solving for Uy, Initial residual = 2.05127e-05, Final residual = 1.91677e-06, No Iterations 1
GAMG:  Solving for p, Initial residual = 1.10437e-05, Final residual = 9.45667e-07, No Iterations 2
time step continuity errors : sum local = 1.15359e-07, global = 5.6335e-09, cumulative = 0.00293993
smoothSolver:  Solving for omega, Initial residual = 7.52391e-06, Final residual = 7.52391e-06, No Iterations 0
smoothSolver:  Solving for k, Initial residual = 9.34439e-06, Final residual = 9.34439e-06, No Iterations 0
ExecutionTime = 332.27 s  ClockTime = 333 s

Time = 1703

smoothSolver:  Solving for Ux, Initial residual = 1.95709e-06, Final residual = 1.95709e-06, No Iterations 0
smoothSolver:  Solving for Uy, Initial residual = 1.92512e-05, Final residual = 1.78689e-06, No Iterations 1
GAMG:  Solving for p, Initial residual = 1.04192e-05, Final residual = 7.95258e-07, No Iterations 2
time step continuity errors : sum local = 9.70107e-08, global = 5.79962e-09, cumulative = 0.00293994
smoothSolver:  Solving for omega, Initial residual = 7.52388e-06, Final residual = 7.52388e-06, No Iterations 0
smoothSolver:  Solving for k, Initial residual = 9.34912e-06, Final residual = 9.34912e-06, No Iterations 0
ExecutionTime = 332.37 s  ClockTime = 333 s

Time = 1704

smoothSolver:  Solving for Ux, Initial residual = 1.8466e-06, Final residual = 1.8466e-06, No Iterations 0
smoothSolver:  Solving for Uy, Initial residual = 1.80929e-05, Final residual = 1.69331e-06, No Iterations 1
GAMG:  Solving for p, Initial residual = 9.69337e-06, Final residual = 8.98299e-07, No Iterations 2
time step continuity errors : sum local = 1.0958e-07, global = -6.01434e-09, cumulative = 0.00293993
smoothSolver:  Solving for omega, Initial residual = 7.52391e-06, Final residual = 7.52391e-06, No Iterations 0
smoothSolver:  Solving for k, Initial residual = 9.23255e-06, Final residual = 9.23255e-06, No Iterations 0
ExecutionTime = 332.45 s  ClockTime = 333 s

Time = 1705

smoothSolver:  Solving for Ux, Initial residual = 1.75298e-06, Final residual = 1.75298e-06, No Iterations 0
smoothSolver:  Solving for Uy, Initial residual = 1.6892e-05, Final residual = 1.55582e-06, No Iterations 1
GAMG:  Solving for p, Initial residual = 9.0698e-06, Final residual = 8.14235e-07, No Iterations 2
time step continuity errors : sum local = 9.93259e-08, global = 8.08577e-09, cumulative = 0.00293994
smoothSolver:  Solving for omega, Initial residual = 7.52389e-06, Final residual = 7.52389e-06, No Iterations 0
smoothSolver:  Solving for k, Initial residual = 9.20299e-06, Final residual = 9.20299e-06, No Iterations 0
ExecutionTime = 332.55 s  ClockTime = 333 s

Time = 1706

smoothSolver:  Solving for Ux, Initial residual = 1.66248e-06, Final residual = 1.66248e-06, No Iterations 0
smoothSolver:  Solving for Uy, Initial residual = 1.58707e-05, Final residual = 1.50746e-06, No Iterations 1
GAMG:  Solving for p, Initial residual = 8.49634e-06, Final residual = 9.72389e-07, No Iterations 1
time step continuity errors : sum local = 1.18619e-07, global = 5.24942e-10, cumulative = 0.00293994
smoothSolver:  Solving for omega, Initial residual = 7.52392e-06, Final residual = 7.52392e-06, No Iterations 0
smoothSolver:  Solving for k, Initial residual = 9.27056e-06, Final residual = 9.27056e-06, No Iterations 0
ExecutionTime = 332.63 s  ClockTime = 333 s

Time = 1707

smoothSolver:  Solving for Ux, Initial residual = 1.5858e-06, Final residual = 1.5858e-06, No Iterations 0
smoothSolver:  Solving for Uy, Initial residual = 1.46755e-05, Final residual = 1.41025e-06, No Iterations 1
GAMG:  Solving for p, Initial residual = 7.99795e-06, Final residual = 9.03954e-07, No Iterations 1
time step continuity errors : sum local = 1.1027e-07, global = 2.88783e-09, cumulative = 0.00293994
smoothSolver:  Solving for omega, Initial residual = 7.52394e-06, Final residual = 7.52394e-06, No Iterations 0
smoothSolver:  Solving for k, Initial residual = 9.3326e-06, Final residual = 9.3326e-06, No Iterations 0
ExecutionTime = 332.71 s  ClockTime = 333 s

Time = 1708

smoothSolver:  Solving for Ux, Initial residual = 1.50829e-06, Final residual = 1.50829e-06, No Iterations 0
smoothSolver:  Solving for Uy, Initial residual = 1.37823e-05, Final residual = 1.32701e-06, No Iterations 1
GAMG:  Solving for p, Initial residual = 7.46524e-06, Final residual = 8.95288e-07, No Iterations 1
time step continuity errors : sum local = 1.09213e-07, global = 6.90372e-10, cumulative = 0.00293994
smoothSolver:  Solving for omega, Initial residual = 7.52395e-06, Final residual = 7.52395e-06, No Iterations 0
smoothSolver:  Solving for k, Initial residual = 9.30195e-06, Final residual = 9.30195e-06, No Iterations 0
ExecutionTime = 332.8 s  ClockTime = 333 s

Time = 1709

smoothSolver:  Solving for Ux, Initial residual = 1.43387e-06, Final residual = 1.43387e-06, No Iterations 0
smoothSolver:  Solving for Uy, Initial residual = 1.29649e-05, Final residual = 1.25795e-06, No Iterations 1
GAMG:  Solving for p, Initial residual = 6.96487e-06, Final residual = 8.48024e-07, No Iterations 1
time step continuity errors : sum local = 1.03448e-07, global = 1.29149e-09, cumulative = 0.00293994
smoothSolver:  Solving for omega, Initial residual = 7.52396e-06, Final residual = 7.52396e-06, No Iterations 0
smoothSolver:  Solving for k, Initial residual = 9.22925e-06, Final residual = 9.22925e-06, No Iterations 0
ExecutionTime = 332.88 s  ClockTime = 333 s

Time = 1710

smoothSolver:  Solving for Ux, Initial residual = 1.36045e-06, Final residual = 1.36045e-06, No Iterations 0
smoothSolver:  Solving for Uy, Initial residual = 1.2179e-05, Final residual = 1.2043e-06, No Iterations 1
GAMG:  Solving for p, Initial residual = 6.54978e-06, Final residual = 8.21676e-07, No Iterations 1
time step continuity errors : sum local = 1.00234e-07, global = 9.24571e-10, cumulative = 0.00293994
smoothSolver:  Solving for omega, Initial residual = 7.52396e-06, Final residual = 7.52396e-06, No Iterations 0
smoothSolver:  Solving for k, Initial residual = 9.2325e-06, Final residual = 9.2325e-06, No Iterations 0
ExecutionTime = 332.96 s  ClockTime = 333 s

Time = 1711

smoothSolver:  Solving for Ux, Initial residual = 1.29621e-06, Final residual = 1.29621e-06, No Iterations 0
smoothSolver:  Solving for Uy, Initial residual = 1.14077e-05, Final residual = 1.1446e-06, No Iterations 1
GAMG:  Solving for p, Initial residual = 6.21658e-06, Final residual = 8.07334e-07, No Iterations 1
time step continuity errors : sum local = 9.84841e-08, global = 4.77452e-10, cumulative = 0.00293994
smoothSolver:  Solving for omega, Initial residual = 7.52397e-06, Final residual = 7.52397e-06, No Iterations 0
smoothSolver:  Solving for k, Initial residual = 9.28627e-06, Final residual = 9.28627e-06, No Iterations 0
ExecutionTime = 333.04 s  ClockTime = 333 s

Time = 1712

smoothSolver:  Solving for Ux, Initial residual = 1.24434e-06, Final residual = 1.24434e-06, No Iterations 0
smoothSolver:  Solving for Uy, Initial residual = 1.07306e-05, Final residual = 1.07157e-06, No Iterations 1
GAMG:  Solving for p, Initial residual = 5.90366e-06, Final residual = 7.79814e-07, No Iterations 1
time step continuity errors : sum local = 9.51269e-08, global = 8.18628e-10, cumulative = 0.00293994
smoothSolver:  Solving for omega, Initial residual = 7.52397e-06, Final residual = 7.52397e-06, No Iterations 0
smoothSolver:  Solving for k, Initial residual = 9.32532e-06, Final residual = 9.32532e-06, No Iterations 0
ExecutionTime = 333.12 s  ClockTime = 333 s

Time = 1713

smoothSolver:  Solving for Ux, Initial residual = 1.20191e-06, Final residual = 1.20191e-06, No Iterations 0
smoothSolver:  Solving for Uy, Initial residual = 1.01906e-05, Final residual = 1.01029e-06, No Iterations 1
GAMG:  Solving for p, Initial residual = 5.61192e-06, Final residual = 7.72041e-07, No Iterations 1
time step continuity errors : sum local = 9.41787e-08, global = 2.54167e-10, cumulative = 0.00293994
smoothSolver:  Solving for omega, Initial residual = 7.52397e-06, Final residual = 7.52397e-06, No Iterations 0
smoothSolver:  Solving for k, Initial residual = 9.2873e-06, Final residual = 9.2873e-06, No Iterations 0
ExecutionTime = 333.21 s  ClockTime = 334 s

Time = 1714

smoothSolver:  Solving for Ux, Initial residual = 1.15661e-06, Final residual = 1.15661e-06, No Iterations 0
smoothSolver:  Solving for Uy, Initial residual = 9.63084e-06, Final residual = 9.63084e-06, No Iterations 0
GAMG:  Solving for p, Initial residual = 4.46086e-06, Final residual = 7.23995e-07, No Iterations 1
time step continuity errors : sum local = 8.83178e-08, global = -1.64526e-10, cumulative = 0.00293994
smoothSolver:  Solving for omega, Initial residual = 7.52397e-06, Final residual = 7.52397e-06, No Iterations 0
smoothSolver:  Solving for k, Initial residual = 9.23732e-06, Final residual = 9.23732e-06, No Iterations 0
ExecutionTime = 333.29 s  ClockTime = 334 s


SIMPLE solution converged in 1714 iterations

End

