/*---------------------------------------------------------------------------*\
| =========                 |                                                 |
| \\      /  F ield         | OpenFOAM: The Open Source CFD Toolbox           |
|  \\    /   O peration     | Version:  2412                                  |
|   \\  /    A nd           | Website:  www.openfoam.com                      |
|    \\/     M anipulation  |                                                 |
\*---------------------------------------------------------------------------*/
Build  : _8dbc61e11c-20241220 OPENFOAM=2412 version=v2412
Arch   : "LSB;label=32;scalar=64"
Exec   : simpleFoam
Date   : May 30 2025
Time   : 18:58:22
Host   : am409
PID    : 1581879
I/O    : uncollated
Case   : /home/roko/examinationAssignmentFiles_part1/Diffuser/LaunderSharmaKE
nProcs : 1
trapFpe: Floating point exception trapping enabled (FOAM_SIGFPE).
fileModificationChecking : Monitoring run-time modified files using timeStampMaster (fileModificationSkew 5, maxFileModificationPolls 20)
allowSystemOperations : Allowing user-supplied system call operations

// * * * * * * * * * * * * * * * * * * * * * * * * * * * * * * * * * * * * * //
Create time

Create mesh for time = 0


SIMPLE: convergence criteria
    field p	 tolerance 1e-05
    field U	 tolerance 1e-05
    field "(k|epsilon|omega|f|v2|nuTilda)"	 tolerance 1e-05

Reading field p

Reading field U

Reading/calculating face flux field phi

Selecting incompressible transport model Newtonian
Selecting turbulence model type RAS
Selecting RAS turbulence model LaunderSharmaKE
RAS
{
    RASModel        LaunderSharmaKE;
    turbulence      on;
    printCoeffs     on;
    Cmu             0.09;
    C1              1.44;
    C2              1.92;
    C3              0;
    sigmak          1;
    sigmaEps        1.3;
}

No MRF models present

No finite volume options present

Starting time loop

wallShearStress wallShearStress:
    processing (2) wall patches:
        lowerWall
        upperWall

turbulenceFields turbulenceFields1: storing fields:
    turbulenceProperties:R

Sampled surface:
    lowerWall -> raw
        sampledPatch: lowerWall : patches:(lowerWall)
    upperWall -> raw
        sampledPatch: upperWall : patches:(upperWall)

Sampled surface:
    interface -> raw
        isoSurface: interface : isoMethod:cell regularise:full snap:1 field:Ux value:(1e-10)

Sampled set:
    line -> raw

Sampled set:
    line -> raw

Sampled set:
    line -> raw

Sampled set:
    line -> raw

Sampled set:
    line -> raw

Sampled set:
    line -> raw

Sampled set:
    line -> raw

Sampled set:
    line -> raw

Sampled set:
    line -> raw

Sampled set:
    line -> raw

Sampled set:
    line -> raw

Sampled set:
    line -> raw

Sampled set:
    line -> raw

Sampled set:
    line -> raw

Sampled set:
    line -> raw

Sampled set:
    line -> raw

Sampled set:
    line -> raw

Sampled set:
    line -> raw

Sampled set:
    line -> raw

Sampled set:
    line -> raw

Sampled set:
    line -> raw

Sampled set:
    line -> raw

Sampled set:
    line -> raw

Sampled set:
    line -> raw

Time = 1

smoothSolver:  Solving for Ux, Initial residual = 1, Final residual = 0.00835561, No Iterations 11
smoothSolver:  Solving for Uy, Initial residual = 1, Final residual = 0.00968904, No Iterations 13
GAMG:  Solving for p, Initial residual = 1, Final residual = 0.0419842, No Iterations 1000
time step continuity errors : sum local = 0.000172971, global = -7.24075e-05, cumulative = -7.24075e-05
smoothSolver:  Solving for epsilon, Initial residual = 0.309208, Final residual = 0.00236911, No Iterations 7
smoothSolver:  Solving for k, Initial residual = 1, Final residual = 0.00752639, No Iterations 10
ExecutionTime = 11.42 s  ClockTime = 11 s

Time = 2

smoothSolver:  Solving for Ux, Initial residual = 0.220122, Final residual = 0.00154101, No Iterations 9
smoothSolver:  Solving for Uy, Initial residual = 0.437739, Final residual = 0.00346232, No Iterations 10
GAMG:  Solving for p, Initial residual = 0.00648884, Final residual = 0.00103341, No Iterations 1000
time step continuity errors : sum local = 0.016043, global = 0.000914792, cumulative = 0.000842385
smoothSolver:  Solving for epsilon, Initial residual = 0.536965, Final residual = 0.00449726, No Iterations 11
smoothSolver:  Solving for k, Initial residual = 0.283222, Final residual = 0.00191793, No Iterations 12
ExecutionTime = 14.58 s  ClockTime = 15 s

Time = 3

smoothSolver:  Solving for Ux, Initial residual = 0.164269, Final residual = 0.001174, No Iterations 10
smoothSolver:  Solving for Uy, Initial residual = 0.127867, Final residual = 0.00116919, No Iterations 11
GAMG:  Solving for p, Initial residual = 0.00742225, Final residual = 0.00106918, No Iterations 1000
time step continuity errors : sum local = 0.0129941, global = 0.00158171, cumulative = 0.0024241
smoothSolver:  Solving for epsilon, Initial residual = 0.20756, Final residual = 0.00126286, No Iterations 3
smoothSolver:  Solving for k, Initial residual = 0.123515, Final residual = 0.000843334, No Iterations 12
ExecutionTime = 18.77 s  ClockTime = 19 s

Time = 4

smoothSolver:  Solving for Ux, Initial residual = 0.128335, Final residual = 0.00117495, No Iterations 10
smoothSolver:  Solving for Uy, Initial residual = 0.0976253, Final residual = 0.000733816, No Iterations 12
GAMG:  Solving for p, Initial residual = 0.00769394, Final residual = 0.00343944, No Iterations 1000
time step continuity errors : sum local = 0.0339156, global = 0.00249158, cumulative = 0.00491568
smoothSolver:  Solving for epsilon, Initial residual = 0.300335, Final residual = 0.00231828, No Iterations 2
smoothSolver:  Solving for k, Initial residual = 0.066167, Final residual = 0.000476039, No Iterations 12
bounding k, min: -0.00239515 max: 1.23388 average: 0.23537
ExecutionTime = 22.97 s  ClockTime = 23 s

Time = 5

smoothSolver:  Solving for Ux, Initial residual = 0.114947, Final residual = 0.00108426, No Iterations 10
smoothSolver:  Solving for Uy, Initial residual = 0.106582, Final residual = 0.000805011, No Iterations 12
GAMG:  Solving for p, Initial residual = 0.00737184, Final residual = 0.00463994, No Iterations 1000
time step continuity errors : sum local = 0.0345071, global = 0.00322665, cumulative = 0.00814233
smoothSolver:  Solving for epsilon, Initial residual = 0.0510318, Final residual = 0.000387768, No Iterations 5
smoothSolver:  Solving for k, Initial residual = 0.0444217, Final residual = 0.000401106, No Iterations 11
bounding k, min: -0.00429973 max: 1.22508 average: 0.264694
ExecutionTime = 27.17 s  ClockTime = 27 s

Time = 6

smoothSolver:  Solving for Ux, Initial residual = 0.10693, Final residual = 0.000894137, No Iterations 10
smoothSolver:  Solving for Uy, Initial residual = 0.110925, Final residual = 0.000768238, No Iterations 12
GAMG:  Solving for p, Initial residual = 0.0105393, Final residual = 0.00783296, No Iterations 1000
time step continuity errors : sum local = 0.0350335, global = 0.00282466, cumulative = 0.010967
smoothSolver:  Solving for epsilon, Initial residual = 0.0835293, Final residual = 0.000532405, No Iterations 3
bounding epsilon, min: -0.467387 max: 289.47 average: 3.52703
smoothSolver:  Solving for k, Initial residual = 0.0336008, Final residual = 0.000332684, No Iterations 10
bounding k, min: -0.00627475 max: 1.25402 average: 0.283759
ExecutionTime = 31.42 s  ClockTime = 31 s

Time = 7

smoothSolver:  Solving for Ux, Initial residual = 0.0981448, Final residual = 0.000695887, No Iterations 10
smoothSolver:  Solving for Uy, Initial residual = 0.126735, Final residual = 0.000881715, No Iterations 12
GAMG:  Solving for p, Initial residual = 0.0278194, Final residual = 0.0182277, No Iterations 1000
time step continuity errors : sum local = 0.0307447, global = 0.00245036, cumulative = 0.0134174
smoothSolver:  Solving for epsilon, Initial residual = 0.0309435, Final residual = 0.00020477, No Iterations 6
bounding epsilon, min: -0.105417 max: 266.94 average: 3.3618
smoothSolver:  Solving for k, Initial residual = 0.026533, Final residual = 0.000206196, No Iterations 10
ExecutionTime = 35.64 s  ClockTime = 36 s

Time = 8

smoothSolver:  Solving for Ux, Initial residual = 0.0782742, Final residual = 0.000550768, No Iterations 10
smoothSolver:  Solving for Uy, Initial residual = 0.119293, Final residual = 0.000822565, No Iterations 12
GAMG:  Solving for p, Initial residual = 0.027672, Final residual = 0.0124774, No Iterations 1000
time step continuity errors : sum local = 0.0224521, global = 0.00165134, cumulative = 0.0150687
smoothSolver:  Solving for epsilon, Initial residual = 0.0893051, Final residual = 0.000539413, No Iterations 4
smoothSolver:  Solving for k, Initial residual = 0.0196954, Final residual = 0.000148407, No Iterations 10
ExecutionTime = 39.84 s  ClockTime = 40 s

Time = 9

smoothSolver:  Solving for Ux, Initial residual = 0.0519265, Final residual = 0.000376687, No Iterations 11
smoothSolver:  Solving for Uy, Initial residual = 0.095662, Final residual = 0.000662813, No Iterations 12
GAMG:  Solving for p, Initial residual = 0.0129549, Final residual = 0.00471646, No Iterations 1000
time step continuity errors : sum local = 0.0177153, global = 0.00107518, cumulative = 0.0161439
smoothSolver:  Solving for epsilon, Initial residual = 0.0378874, Final residual = 0.00025565, No Iterations 7
smoothSolver:  Solving for k, Initial residual = 0.015453, Final residual = 0.000117246, No Iterations 10
ExecutionTime = 44.06 s  ClockTime = 44 s

Time = 10

smoothSolver:  Solving for Ux, Initial residual = 0.041, Final residual = 0.000279547, No Iterations 12
smoothSolver:  Solving for Uy, Initial residual = 0.0752802, Final residual = 0.000525406, No Iterations 12
GAMG:  Solving for p, Initial residual = 0.00932448, Final residual = 0.00174458, No Iterations 1000
time step continuity errors : sum local = 0.00898248, global = 0.000433025, cumulative = 0.0165769
smoothSolver:  Solving for epsilon, Initial residual = 0.0593505, Final residual = 0.000433555, No Iterations 7
smoothSolver:  Solving for k, Initial residual = 0.0124757, Final residual = 0.000100764, No Iterations 10
ExecutionTime = 48.31 s  ClockTime = 48 s

Time = 11

smoothSolver:  Solving for Ux, Initial residual = 0.0368969, Final residual = 0.000265557, No Iterations 12
smoothSolver:  Solving for Uy, Initial residual = 0.108604, Final residual = 0.000733315, No Iterations 12
GAMG:  Solving for p, Initial residual = 0.00880379, Final residual = 0.00102632, No Iterations 1000
time step continuity errors : sum local = 0.00554684, global = 0.000213717, cumulative = 0.0167906
smoothSolver:  Solving for epsilon, Initial residual = 0.0599779, Final residual = 0.000372675, No Iterations 8
smoothSolver:  Solving for k, Initial residual = 0.0111873, Final residual = 9.16478e-05, No Iterations 10
ExecutionTime = 52.57 s  ClockTime = 53 s

Time = 12

smoothSolver:  Solving for Ux, Initial residual = 0.0340974, Final residual = 0.000253131, No Iterations 12
smoothSolver:  Solving for Uy, Initial residual = 0.25678, Final residual = 0.00171052, No Iterations 12
GAMG:  Solving for p, Initial residual = 0.00887769, Final residual = 0.0014649, No Iterations 1000
time step continuity errors : sum local = 0.0072611, global = 0.000477728, cumulative = 0.0172683
smoothSolver:  Solving for epsilon, Initial residual = 0.0870541, Final residual = 0.000535854, No Iterations 7
smoothSolver:  Solving for k, Initial residual = 0.00895133, Final residual = 6.1648e-05, No Iterations 11
ExecutionTime = 56.81 s  ClockTime = 57 s

Time = 13

smoothSolver:  Solving for Ux, Initial residual = 0.0279282, Final residual = 0.000189401, No Iterations 12
smoothSolver:  Solving for Uy, Initial residual = 0.361392, Final residual = 0.00355542, No Iterations 11
GAMG:  Solving for p, Initial residual = 0.00993577, Final residual = 0.00313775, No Iterations 1000
time step continuity errors : sum local = 0.0103015, global = 0.000497902, cumulative = 0.0177662
smoothSolver:  Solving for epsilon, Initial residual = 0.0579191, Final residual = 0.000391363, No Iterations 8
smoothSolver:  Solving for k, Initial residual = 0.00932898, Final residual = 6.38335e-05, No Iterations 11
ExecutionTime = 61.16 s  ClockTime = 61 s

Time = 14

smoothSolver:  Solving for Ux, Initial residual = 0.0169525, Final residual = 0.000150547, No Iterations 11
smoothSolver:  Solving for Uy, Initial residual = 0.240062, Final residual = 0.00230837, No Iterations 11
GAMG:  Solving for p, Initial residual = 0.027092, Final residual = 0.00782613, No Iterations 1000
time step continuity errors : sum local = 0.00824472, global = 0.000298952, cumulative = 0.0180652
smoothSolver:  Solving for epsilon, Initial residual = 0.0436219, Final residual = 0.000319687, No Iterations 9
smoothSolver:  Solving for k, Initial residual = 0.00925012, Final residual = 6.68423e-05, No Iterations 11
ExecutionTime = 65.5 s  ClockTime = 65 s

Time = 15

smoothSolver:  Solving for Ux, Initial residual = 0.0129997, Final residual = 0.000106796, No Iterations 11
smoothSolver:  Solving for Uy, Initial residual = 0.122317, Final residual = 0.00115904, No Iterations 11
GAMG:  Solving for p, Initial residual = 0.0431934, Final residual = 0.00897968, No Iterations 1000
time step continuity errors : sum local = 0.00486569, global = 8.58299e-05, cumulative = 0.018151
smoothSolver:  Solving for epsilon, Initial residual = 0.0468848, Final residual = 0.000385585, No Iterations 9
smoothSolver:  Solving for k, Initial residual = 0.00990339, Final residual = 6.93347e-05, No Iterations 11
ExecutionTime = 69.85 s  ClockTime = 70 s

Time = 16

smoothSolver:  Solving for Ux, Initial residual = 0.0103994, Final residual = 9.09944e-05, No Iterations 11
smoothSolver:  Solving for Uy, Initial residual = 0.0853193, Final residual = 0.000804862, No Iterations 11
GAMG:  Solving for p, Initial residual = 0.0153152, Final residual = 0.00209915, No Iterations 1000
time step continuity errors : sum local = 0.00199513, global = 6.73513e-05, cumulative = 0.0182184
smoothSolver:  Solving for epsilon, Initial residual = 0.041055, Final residual = 0.000383787, No Iterations 9
smoothSolver:  Solving for k, Initial residual = 0.00966375, Final residual = 7.35465e-05, No Iterations 11
ExecutionTime = 74.11 s  ClockTime = 74 s

Time = 17

smoothSolver:  Solving for Ux, Initial residual = 0.00868027, Final residual = 8.09581e-05, No Iterations 11
smoothSolver:  Solving for Uy, Initial residual = 0.150724, Final residual = 0.00145174, No Iterations 11
GAMG:  Solving for p, Initial residual = 0.0119927, Final residual = 0.000928532, No Iterations 1000
time step continuity errors : sum local = 0.00070107, global = 6.70685e-05, cumulative = 0.0182854
smoothSolver:  Solving for epsilon, Initial residual = 0.0388909, Final residual = 0.000333075, No Iterations 9
smoothSolver:  Solving for k, Initial residual = 0.00992081, Final residual = 7.67629e-05, No Iterations 11
ExecutionTime = 78.44 s  ClockTime = 78 s

Time = 18

smoothSolver:  Solving for Ux, Initial residual = 0.00659889, Final residual = 5.38618e-05, No Iterations 11
smoothSolver:  Solving for Uy, Initial residual = 0.110225, Final residual = 0.00103414, No Iterations 11
GAMG:  Solving for p, Initial residual = 0.0234999, Final residual = 0.00251963, No Iterations 1000
time step continuity errors : sum local = 0.00093891, global = 3.22167e-05, cumulative = 0.0183177
smoothSolver:  Solving for epsilon, Initial residual = 0.0335177, Final residual = 0.000327479, No Iterations 9
smoothSolver:  Solving for k, Initial residual = 0.00974421, Final residual = 7.95729e-05, No Iterations 11
ExecutionTime = 82.77 s  ClockTime = 83 s

Time = 19

smoothSolver:  Solving for Ux, Initial residual = 0.00564283, Final residual = 3.83556e-05, No Iterations 11
smoothSolver:  Solving for Uy, Initial residual = 0.0415807, Final residual = 0.000367936, No Iterations 11
GAMG:  Solving for p, Initial residual = 0.0612344, Final residual = 0.00420098, No Iterations 1000
time step continuity errors : sum local = 0.000455471, global = 1.39578e-05, cumulative = 0.0183316
smoothSolver:  Solving for epsilon, Initial residual = 0.0284115, Final residual = 0.000275407, No Iterations 9
smoothSolver:  Solving for k, Initial residual = 0.00973893, Final residual = 8.02863e-05, No Iterations 11
ExecutionTime = 86.97 s  ClockTime = 87 s

Time = 20

smoothSolver:  Solving for Ux, Initial residual = 0.0047628, Final residual = 3.80874e-05, No Iterations 11
smoothSolver:  Solving for Uy, Initial residual = 0.0221624, Final residual = 0.000197748, No Iterations 11
GAMG:  Solving for p, Initial residual = 0.0470724, Final residual = 0.00137181, No Iterations 1000
time step continuity errors : sum local = 0.000120828, global = 7.0827e-06, cumulative = 0.0183387
smoothSolver:  Solving for epsilon, Initial residual = 0.0213464, Final residual = 0.000146269, No Iterations 10
smoothSolver:  Solving for k, Initial residual = 0.00936203, Final residual = 8.02942e-05, No Iterations 11
ExecutionTime = 91.16 s  ClockTime = 91 s

Time = 21

smoothSolver:  Solving for Ux, Initial residual = 0.00411116, Final residual = 3.32535e-05, No Iterations 11
smoothSolver:  Solving for Uy, Initial residual = 0.0220808, Final residual = 0.000198817, No Iterations 11
GAMG:  Solving for p, Initial residual = 0.0315428, Final residual = 0.000960546, No Iterations 1000
time step continuity errors : sum local = 0.000101824, global = 5.79396e-06, cumulative = 0.0183445
smoothSolver:  Solving for epsilon, Initial residual = 0.0162639, Final residual = 0.000124887, No Iterations 10
smoothSolver:  Solving for k, Initial residual = 0.00910186, Final residual = 7.94827e-05, No Iterations 11
ExecutionTime = 95.34 s  ClockTime = 95 s

Time = 22

smoothSolver:  Solving for Ux, Initial residual = 0.00330696, Final residual = 2.7998e-05, No Iterations 11
smoothSolver:  Solving for Uy, Initial residual = 0.0113857, Final residual = 9.72311e-05, No Iterations 11
GAMG:  Solving for p, Initial residual = 0.0180972, Final residual = 0.000392711, No Iterations 1000
time step continuity errors : sum local = 6.04187e-05, global = 2.37993e-06, cumulative = 0.0183469
smoothSolver:  Solving for epsilon, Initial residual = 0.0120245, Final residual = 0.000109521, No Iterations 10
smoothSolver:  Solving for k, Initial residual = 0.00875338, Final residual = 7.86551e-05, No Iterations 11
ExecutionTime = 99.56 s  ClockTime = 100 s

Time = 23

smoothSolver:  Solving for Ux, Initial residual = 0.00286445, Final residual = 2.46578e-05, No Iterations 11
smoothSolver:  Solving for Uy, Initial residual = 0.00607472, Final residual = 4.95802e-05, No Iterations 11
GAMG:  Solving for p, Initial residual = 0.0135989, Final residual = 0.000172999, No Iterations 1000
time step continuity errors : sum local = 2.89761e-05, global = 5.89616e-07, cumulative = 0.0183475
smoothSolver:  Solving for epsilon, Initial residual = 0.010147, Final residual = 9.73167e-05, No Iterations 10
smoothSolver:  Solving for k, Initial residual = 0.00849208, Final residual = 7.8553e-05, No Iterations 11
ExecutionTime = 103.89 s  ClockTime = 104 s

Time = 24

smoothSolver:  Solving for Ux, Initial residual = 0.00252547, Final residual = 2.25325e-05, No Iterations 11
smoothSolver:  Solving for Uy, Initial residual = 0.00574993, Final residual = 4.9266e-05, No Iterations 11
GAMG:  Solving for p, Initial residual = 0.0125099, Final residual = 0.000172203, No Iterations 1000
time step continuity errors : sum local = 2.75915e-05, global = 7.9126e-07, cumulative = 0.0183483
smoothSolver:  Solving for epsilon, Initial residual = 0.00797141, Final residual = 5.7282e-05, No Iterations 11
smoothSolver:  Solving for k, Initial residual = 0.00828141, Final residual = 7.98322e-05, No Iterations 11
ExecutionTime = 108.2 s  ClockTime = 108 s

Time = 25

smoothSolver:  Solving for Ux, Initial residual = 0.00228677, Final residual = 2.06177e-05, No Iterations 11
smoothSolver:  Solving for Uy, Initial residual = 0.00461087, Final residual = 3.82664e-05, No Iterations 11
GAMG:  Solving for p, Initial residual = 0.0122448, Final residual = 0.000154208, No Iterations 1000
time step continuity errors : sum local = 2.28828e-05, global = -6.95869e-07, cumulative = 0.0183476
smoothSolver:  Solving for epsilon, Initial residual = 0.00708219, Final residual = 5.26517e-05, No Iterations 11
smoothSolver:  Solving for k, Initial residual = 0.00819103, Final residual = 5.48787e-05, No Iterations 12
ExecutionTime = 112.4 s  ClockTime = 112 s

Time = 26

smoothSolver:  Solving for Ux, Initial residual = 0.00206472, Final residual = 1.88706e-05, No Iterations 11
smoothSolver:  Solving for Uy, Initial residual = 0.00386904, Final residual = 3.10092e-05, No Iterations 11
GAMG:  Solving for p, Initial residual = 0.0116688, Final residual = 0.000131198, No Iterations 1000
time step continuity errors : sum local = 1.85144e-05, global = 5.46544e-07, cumulative = 0.0183481
smoothSolver:  Solving for epsilon, Initial residual = 0.0059806, Final residual = 4.75167e-05, No Iterations 11
smoothSolver:  Solving for k, Initial residual = 0.00832722, Final residual = 5.8405e-05, No Iterations 12
ExecutionTime = 116.63 s  ClockTime = 117 s

Time = 27

smoothSolver:  Solving for Ux, Initial residual = 0.0018537, Final residual = 1.72639e-05, No Iterations 11
smoothSolver:  Solving for Uy, Initial residual = 0.00361687, Final residual = 2.93119e-05, No Iterations 11
GAMG:  Solving for p, Initial residual = 0.011072, Final residual = 0.000114857, No Iterations 1000
time step continuity errors : sum local = 1.56047e-05, global = -5.10474e-07, cumulative = 0.0183476
smoothSolver:  Solving for epsilon, Initial residual = 0.00495643, Final residual = 4.18986e-05, No Iterations 11
smoothSolver:  Solving for k, Initial residual = 0.008738, Final residual = 6.27573e-05, No Iterations 12
ExecutionTime = 120.95 s  ClockTime = 121 s

Time = 28

smoothSolver:  Solving for Ux, Initial residual = 0.00167331, Final residual = 1.57652e-05, No Iterations 11
smoothSolver:  Solving for Uy, Initial residual = 0.00336376, Final residual = 2.7242e-05, No Iterations 11
GAMG:  Solving for p, Initial residual = 0.0104509, Final residual = 0.000104392, No Iterations 999
time step continuity errors : sum local = 1.36664e-05, global = 4.64288e-07, cumulative = 0.0183481
smoothSolver:  Solving for epsilon, Initial residual = 0.00443984, Final residual = 3.71472e-05, No Iterations 11
smoothSolver:  Solving for k, Initial residual = 0.00936669, Final residual = 6.72915e-05, No Iterations 12
ExecutionTime = 125.18 s  ClockTime = 125 s

Time = 29

smoothSolver:  Solving for Ux, Initial residual = 0.00151361, Final residual = 1.43917e-05, No Iterations 11
smoothSolver:  Solving for Uy, Initial residual = 0.00319859, Final residual = 2.62179e-05, No Iterations 11
GAMG:  Solving for p, Initial residual = 0.00996969, Final residual = 9.95055e-05, No Iterations 975
time step continuity errors : sum local = 1.25191e-05, global = 4.49906e-07, cumulative = 0.0183485
smoothSolver:  Solving for epsilon, Initial residual = 0.00397598, Final residual = 3.25955e-05, No Iterations 11
smoothSolver:  Solving for k, Initial residual = 0.0100886, Final residual = 7.20045e-05, No Iterations 12
ExecutionTime = 128.26 s  ClockTime = 128 s

Time = 30

smoothSolver:  Solving for Ux, Initial residual = 0.00137619, Final residual = 1.31548e-05, No Iterations 11
smoothSolver:  Solving for Uy, Initial residual = 0.00304004, Final residual = 2.51453e-05, No Iterations 11
GAMG:  Solving for p, Initial residual = 0.009463, Final residual = 9.4493e-05, No Iterations 968
time step continuity errors : sum local = 1.14455e-05, global = 4.38517e-07, cumulative = 0.018349
smoothSolver:  Solving for epsilon, Initial residual = 0.00361796, Final residual = 2.78932e-05, No Iterations 11
smoothSolver:  Solving for k, Initial residual = 0.0108604, Final residual = 7.65602e-05, No Iterations 12
ExecutionTime = 131.84 s  ClockTime = 132 s

Time = 31

smoothSolver:  Solving for Ux, Initial residual = 0.00125708, Final residual = 1.20293e-05, No Iterations 11
smoothSolver:  Solving for Uy, Initial residual = 0.00290602, Final residual = 2.42061e-05, No Iterations 11
GAMG:  Solving for p, Initial residual = 0.0090064, Final residual = 9.00238e-05, No Iterations 944
time step continuity errors : sum local = 1.05076e-05, global = 4.17772e-07, cumulative = 0.0183494
smoothSolver:  Solving for epsilon, Initial residual = 0.0034031, Final residual = 2.34083e-05, No Iterations 11
smoothSolver:  Solving for k, Initial residual = 0.0116613, Final residual = 8.11952e-05, No Iterations 12
ExecutionTime = 135.81 s  ClockTime = 136 s

Time = 32

smoothSolver:  Solving for Ux, Initial residual = 0.00115125, Final residual = 1.10129e-05, No Iterations 11
smoothSolver:  Solving for Uy, Initial residual = 0.00278624, Final residual = 2.33981e-05, No Iterations 11
GAMG:  Solving for p, Initial residual = 0.00855241, Final residual = 8.55179e-05, No Iterations 956
time step continuity errors : sum local = 9.61556e-06, global = 4.2409e-07, cumulative = 0.0183498
smoothSolver:  Solving for epsilon, Initial residual = 0.00322163, Final residual = 2.95227e-05, No Iterations 10
smoothSolver:  Solving for k, Initial residual = 0.0124897, Final residual = 8.6137e-05, No Iterations 12
ExecutionTime = 139.91 s  ClockTime = 140 s

Time = 33

smoothSolver:  Solving for Ux, Initial residual = 0.00106243, Final residual = 1.01425e-05, No Iterations 11
smoothSolver:  Solving for Uy, Initial residual = 0.00269107, Final residual = 2.28068e-05, No Iterations 11
GAMG:  Solving for p, Initial residual = 0.00816842, Final residual = 8.16555e-05, No Iterations 962
time step continuity errors : sum local = 8.86002e-06, global = 4.3358e-07, cumulative = 0.0183502
smoothSolver:  Solving for epsilon, Initial residual = 0.00312861, Final residual = 2.47231e-05, No Iterations 10
smoothSolver:  Solving for k, Initial residual = 0.0133375, Final residual = 9.10194e-05, No Iterations 12
ExecutionTime = 144.12 s  ClockTime = 144 s

Time = 34

smoothSolver:  Solving for Ux, Initial residual = 0.000988799, Final residual = 9.37636e-06, No Iterations 11
smoothSolver:  Solving for Uy, Initial residual = 0.00259115, Final residual = 2.21146e-05, No Iterations 11
GAMG:  Solving for p, Initial residual = 0.00777658, Final residual = 7.74996e-05, No Iterations 954
time step continuity errors : sum local = 8.1272e-06, global = 4.2484e-07, cumulative = 0.0183507
smoothSolver:  Solving for epsilon, Initial residual = 0.00311236, Final residual = 2.16397e-05, No Iterations 10
smoothSolver:  Solving for k, Initial residual = 0.0142047, Final residual = 9.59963e-05, No Iterations 12
ExecutionTime = 148.28 s  ClockTime = 148 s

Time = 35

smoothSolver:  Solving for Ux, Initial residual = 0.000926252, Final residual = 8.70873e-06, No Iterations 11
smoothSolver:  Solving for Uy, Initial residual = 0.00249414, Final residual = 2.14044e-05, No Iterations 11
GAMG:  Solving for p, Initial residual = 0.0074473, Final residual = 7.42289e-05, No Iterations 936
time step continuity errors : sum local = 7.52529e-06, global = 4.13324e-07, cumulative = 0.0183511
smoothSolver:  Solving for epsilon, Initial residual = 0.00315934, Final residual = 3.1584e-05, No Iterations 9
smoothSolver:  Solving for k, Initial residual = 0.0150839, Final residual = 0.000100918, No Iterations 12
ExecutionTime = 152.35 s  ClockTime = 152 s

Time = 36

smoothSolver:  Solving for Ux, Initial residual = 0.000873648, Final residual = 8.15364e-06, No Iterations 11
smoothSolver:  Solving for Uy, Initial residual = 0.00240701, Final residual = 2.07723e-05, No Iterations 11
GAMG:  Solving for p, Initial residual = 0.00712213, Final residual = 7.12212e-05, No Iterations 918
time step continuity errors : sum local = 6.98503e-06, global = 4.01767e-07, cumulative = 0.0183515
smoothSolver:  Solving for epsilon, Initial residual = 0.00327195, Final residual = 3.14054e-05, No Iterations 9
smoothSolver:  Solving for k, Initial residual = 0.0159733, Final residual = 0.000105829, No Iterations 12
ExecutionTime = 156.37 s  ClockTime = 156 s

Time = 37

smoothSolver:  Solving for Ux, Initial residual = 0.000830853, Final residual = 7.69872e-06, No Iterations 11
smoothSolver:  Solving for Uy, Initial residual = 0.0023295, Final residual = 2.02194e-05, No Iterations 11
GAMG:  Solving for p, Initial residual = 0.00684239, Final residual = 6.83805e-05, No Iterations 900
time step continuity errors : sum local = 6.50475e-06, global = 3.91301e-07, cumulative = 0.0183519
smoothSolver:  Solving for epsilon, Initial residual = 0.00345659, Final residual = 3.32551e-05, No Iterations 9
smoothSolver:  Solving for k, Initial residual = 0.0168699, Final residual = 0.000167929, No Iterations 11
ExecutionTime = 160.06 s  ClockTime = 160 s

Time = 38

smoothSolver:  Solving for Ux, Initial residual = 0.000796545, Final residual = 7.33965e-06, No Iterations 11
smoothSolver:  Solving for Uy, Initial residual = 0.00225641, Final residual = 1.97028e-05, No Iterations 11
GAMG:  Solving for p, Initial residual = 0.00655283, Final residual = 6.52889e-05, No Iterations 886
time step continuity errors : sum local = 6.02544e-06, global = 3.78553e-07, cumulative = 0.0183522
smoothSolver:  Solving for epsilon, Initial residual = 0.00370334, Final residual = 3.68476e-05, No Iterations 9
smoothSolver:  Solving for k, Initial residual = 0.0177716, Final residual = 0.000175557, No Iterations 11
ExecutionTime = 163.69 s  ClockTime = 164 s

Time = 39

smoothSolver:  Solving for Ux, Initial residual = 0.000770755, Final residual = 7.06926e-06, No Iterations 11
smoothSolver:  Solving for Uy, Initial residual = 0.0021901, Final residual = 1.9246e-05, No Iterations 11
GAMG:  Solving for p, Initial residual = 0.00631816, Final residual = 6.30122e-05, No Iterations 868
time step continuity errors : sum local = 5.6464e-06, global = 3.69042e-07, cumulative = 0.0183526
smoothSolver:  Solving for epsilon, Initial residual = 0.00401504, Final residual = 2.65718e-05, No Iterations 10
smoothSolver:  Solving for k, Initial residual = 0.0186742, Final residual = 0.000182854, No Iterations 11
ExecutionTime = 166.43 s  ClockTime = 166 s

Time = 40

smoothSolver:  Solving for Ux, Initial residual = 0.00075292, Final residual = 6.88261e-06, No Iterations 11
smoothSolver:  Solving for Uy, Initial residual = 0.00212844, Final residual = 1.88068e-05, No Iterations 11
GAMG:  Solving for p, Initial residual = 0.00605664, Final residual = 6.03182e-05, No Iterations 856
time step continuity errors : sum local = 5.26026e-06, global = 3.57209e-07, cumulative = 0.018353
smoothSolver:  Solving for epsilon, Initial residual = 0.00437096, Final residual = 2.98142e-05, No Iterations 10
smoothSolver:  Solving for k, Initial residual = 0.019568, Final residual = 0.000189836, No Iterations 11
ExecutionTime = 169.15 s  ClockTime = 169 s

Time = 41

smoothSolver:  Solving for Ux, Initial residual = 0.000741678, Final residual = 6.75107e-06, No Iterations 11
smoothSolver:  Solving for Uy, Initial residual = 0.00207429, Final residual = 1.84127e-05, No Iterations 11
GAMG:  Solving for p, Initial residual = 0.00584225, Final residual = 5.83873e-05, No Iterations 840
time step continuity errors : sum local = 4.95706e-06, global = 3.47769e-07, cumulative = 0.0183533
smoothSolver:  Solving for epsilon, Initial residual = 0.00473956, Final residual = 3.31436e-05, No Iterations 10
smoothSolver:  Solving for k, Initial residual = 0.0204651, Final residual = 0.000196892, No Iterations 11
ExecutionTime = 171.8 s  ClockTime = 172 s

Time = 42

smoothSolver:  Solving for Ux, Initial residual = 0.000735376, Final residual = 6.66232e-06, No Iterations 11
smoothSolver:  Solving for Uy, Initial residual = 0.00202537, Final residual = 1.80243e-05, No Iterations 11
GAMG:  Solving for p, Initial residual = 0.00562006, Final residual = 5.59654e-05, No Iterations 832
time step continuity errors : sum local = 4.62572e-06, global = 3.34933e-07, cumulative = 0.0183536
smoothSolver:  Solving for epsilon, Initial residual = 0.00510753, Final residual = 3.63202e-05, No Iterations 10
smoothSolver:  Solving for k, Initial residual = 0.0213533, Final residual = 0.000203674, No Iterations 11
ExecutionTime = 174.42 s  ClockTime = 174 s

Time = 43

smoothSolver:  Solving for Ux, Initial residual = 0.000732069, Final residual = 6.60537e-06, No Iterations 11
smoothSolver:  Solving for Uy, Initial residual = 0.00198094, Final residual = 1.76754e-05, No Iterations 11
GAMG:  Solving for p, Initial residual = 0.00543983, Final residual = 5.41685e-05, No Iterations 820
time step continuity errors : sum local = 4.36268e-06, global = 3.24434e-07, cumulative = 0.018354
smoothSolver:  Solving for epsilon, Initial residual = 0.00547095, Final residual = 3.94712e-05, No Iterations 10
smoothSolver:  Solving for k, Initial residual = 0.0222279, Final residual = 0.000210001, No Iterations 11
ExecutionTime = 177.01 s  ClockTime = 177 s

Time = 44

smoothSolver:  Solving for Ux, Initial residual = 0.000731003, Final residual = 6.57783e-06, No Iterations 11
smoothSolver:  Solving for Uy, Initial residual = 0.00194044, Final residual = 1.73409e-05, No Iterations 11
GAMG:  Solving for p, Initial residual = 0.00524077, Final residual = 5.23389e-05, No Iterations 812
time step continuity errors : sum local = 4.11229e-06, global = 3.13702e-07, cumulative = 0.0183543
smoothSolver:  Solving for epsilon, Initial residual = 0.00583043, Final residual = 4.24671e-05, No Iterations 10
smoothSolver:  Solving for k, Initial residual = 0.0230903, Final residual = 0.000216195, No Iterations 11
ExecutionTime = 179.52 s  ClockTime = 180 s

Time = 45

smoothSolver:  Solving for Ux, Initial residual = 0.000731532, Final residual = 6.57257e-06, No Iterations 11
smoothSolver:  Solving for Uy, Initial residual = 0.00190004, Final residual = 1.70216e-05, No Iterations 11
GAMG:  Solving for p, Initial residual = 0.00507683, Final residual = 5.07313e-05, No Iterations 804
time step continuity errors : sum local = 3.89375e-06, global = 3.03552e-07, cumulative = 0.0183546
smoothSolver:  Solving for epsilon, Initial residual = 0.00617558, Final residual = 4.53113e-05, No Iterations 10
smoothSolver:  Solving for k, Initial residual = 0.0239426, Final residual = 0.000222251, No Iterations 11
ExecutionTime = 182.96 s  ClockTime = 183 s

Time = 46

smoothSolver:  Solving for Ux, Initial residual = 0.000733444, Final residual = 6.58622e-06, No Iterations 11
smoothSolver:  Solving for Uy, Initial residual = 0.00186134, Final residual = 1.67185e-05, No Iterations 11
GAMG:  Solving for p, Initial residual = 0.00491121, Final residual = 4.90306e-05, No Iterations 800
time step continuity errors : sum local = 3.67264e-06, global = 2.91937e-07, cumulative = 0.0183549
smoothSolver:  Solving for epsilon, Initial residual = 0.00650964, Final residual = 4.79597e-05, No Iterations 10
smoothSolver:  Solving for k, Initial residual = 0.0247672, Final residual = 0.000227349, No Iterations 11
ExecutionTime = 186.24 s  ClockTime = 186 s

Time = 47

smoothSolver:  Solving for Ux, Initial residual = 0.000736274, Final residual = 6.61326e-06, No Iterations 11
smoothSolver:  Solving for Uy, Initial residual = 0.00182343, Final residual = 1.64298e-05, No Iterations 11
GAMG:  Solving for p, Initial residual = 0.00479281, Final residual = 4.77137e-05, No Iterations 794
time step continuity errors : sum local = 3.4868e-06, global = 2.8175e-07, cumulative = 0.0183552
smoothSolver:  Solving for epsilon, Initial residual = 0.00683678, Final residual = 5.05119e-05, No Iterations 10
smoothSolver:  Solving for k, Initial residual = 0.0255772, Final residual = 0.000232646, No Iterations 11
ExecutionTime = 189.05 s  ClockTime = 189 s

Time = 48

smoothSolver:  Solving for Ux, Initial residual = 0.000740126, Final residual = 6.65007e-06, No Iterations 11
smoothSolver:  Solving for Uy, Initial residual = 0.00178894, Final residual = 1.61604e-05, No Iterations 11
GAMG:  Solving for p, Initial residual = 0.00465443, Final residual = 4.65063e-05, No Iterations 790
time step continuity errors : sum local = 3.32375e-06, global = 2.73185e-07, cumulative = 0.0183554
smoothSolver:  Solving for epsilon, Initial residual = 0.00715624, Final residual = 5.27958e-05, No Iterations 10
smoothSolver:  Solving for k, Initial residual = 0.026367, Final residual = 0.00023745, No Iterations 11
ExecutionTime = 192.5 s  ClockTime = 192 s

Time = 49

smoothSolver:  Solving for Ux, Initial residual = 0.000744682, Final residual = 6.69134e-06, No Iterations 11
smoothSolver:  Solving for Uy, Initial residual = 0.00175762, Final residual = 1.59068e-05, No Iterations 11
GAMG:  Solving for p, Initial residual = 0.00454608, Final residual = 4.53403e-05, No Iterations 788
time step continuity errors : sum local = 3.16838e-06, global = 2.64254e-07, cumulative = 0.0183557
smoothSolver:  Solving for epsilon, Initial residual = 0.0074485, Final residual = 5.47019e-05, No Iterations 10
smoothSolver:  Solving for k, Initial residual = 0.0271332, Final residual = 0.000241919, No Iterations 11
ExecutionTime = 195.87 s  ClockTime = 196 s

Time = 50

smoothSolver:  Solving for Ux, Initial residual = 0.000749295, Final residual = 6.73094e-06, No Iterations 11
smoothSolver:  Solving for Uy, Initial residual = 0.00173037, Final residual = 1.56776e-05, No Iterations 11
GAMG:  Solving for p, Initial residual = 0.00444214, Final residual = 4.44174e-05, No Iterations 786
time step continuity errors : sum local = 3.03522e-06, global = 2.56138e-07, cumulative = 0.018356
smoothSolver:  Solving for epsilon, Initial residual = 0.00771886, Final residual = 5.63853e-05, No Iterations 10
smoothSolver:  Solving for k, Initial residual = 0.0278578, Final residual = 0.000245496, No Iterations 11
ExecutionTime = 199.23 s  ClockTime = 199 s

Time = 51

smoothSolver:  Solving for Ux, Initial residual = 0.000753448, Final residual = 6.76595e-06, No Iterations 11
smoothSolver:  Solving for Uy, Initial residual = 0.00170316, Final residual = 1.54487e-05, No Iterations 11
GAMG:  Solving for p, Initial residual = 0.00434892, Final residual = 4.34413e-05, No Iterations 786
time step continuity errors : sum local = 2.90786e-06, global = 2.4811e-07, cumulative = 0.0183562
smoothSolver:  Solving for epsilon, Initial residual = 0.0079657, Final residual = 5.76932e-05, No Iterations 10
smoothSolver:  Solving for k, Initial residual = 0.0285904, Final residual = 0.00025088, No Iterations 11
ExecutionTime = 202.6 s  ClockTime = 203 s

Time = 52

smoothSolver:  Solving for Ux, Initial residual = 0.000757119, Final residual = 6.79689e-06, No Iterations 11
smoothSolver:  Solving for Uy, Initial residual = 0.00167461, Final residual = 1.52333e-05, No Iterations 11
GAMG:  Solving for p, Initial residual = 0.00422017, Final residual = 4.20971e-05, No Iterations 794
time step continuity errors : sum local = 2.75959e-06, global = 2.38776e-07, cumulative = 0.0183564
smoothSolver:  Solving for epsilon, Initial residual = 0.00818615, Final residual = 5.86841e-05, No Iterations 10
smoothSolver:  Solving for k, Initial residual = 0.029255, Final residual = 0.000252923, No Iterations 11
ExecutionTime = 206.06 s  ClockTime = 206 s

Time = 53

smoothSolver:  Solving for Ux, Initial residual = 0.000760062, Final residual = 6.81938e-06, No Iterations 11
smoothSolver:  Solving for Uy, Initial residual = 0.00164966, Final residual = 1.5024e-05, No Iterations 11
GAMG:  Solving for p, Initial residual = 0.00409504, Final residual = 4.0788e-05, No Iterations 800
time step continuity errors : sum local = 2.61552e-06, global = 2.28627e-07, cumulative = 0.0183567
smoothSolver:  Solving for epsilon, Initial residual = 0.00838049, Final residual = 5.93406e-05, No Iterations 10
smoothSolver:  Solving for k, Initial residual = 0.0299491, Final residual = 0.000257815, No Iterations 11
ExecutionTime = 209.51 s  ClockTime = 210 s

Time = 54

smoothSolver:  Solving for Ux, Initial residual = 0.000761977, Final residual = 6.83463e-06, No Iterations 11
smoothSolver:  Solving for Uy, Initial residual = 0.00162483, Final residual = 1.48306e-05, No Iterations 11
GAMG:  Solving for p, Initial residual = 0.0039385, Final residual = 3.93358e-05, No Iterations 814
time step continuity errors : sum local = 2.46876e-06, global = 2.17572e-07, cumulative = 0.0183569
smoothSolver:  Solving for epsilon, Initial residual = 0.00855889, Final residual = 5.99103e-05, No Iterations 10
smoothSolver:  Solving for k, Initial residual = 0.0305821, Final residual = 0.000260382, No Iterations 11
ExecutionTime = 213.05 s  ClockTime = 213 s

Time = 55

smoothSolver:  Solving for Ux, Initial residual = 0.000762904, Final residual = 6.84038e-06, No Iterations 11
smoothSolver:  Solving for Uy, Initial residual = 0.00160361, Final residual = 1.46481e-05, No Iterations 11
GAMG:  Solving for p, Initial residual = 0.00380509, Final residual = 3.8042e-05, No Iterations 826
time step continuity errors : sum local = 2.33674e-06, global = 2.07252e-07, cumulative = 0.0183571
smoothSolver:  Solving for epsilon, Initial residual = 0.00870718, Final residual = 6.00452e-05, No Iterations 10
smoothSolver:  Solving for k, Initial residual = 0.0311736, Final residual = 0.000261793, No Iterations 11
ExecutionTime = 216.65 s  ClockTime = 217 s

Time = 56

smoothSolver:  Solving for Ux, Initial residual = 0.000762973, Final residual = 6.83577e-06, No Iterations 11
smoothSolver:  Solving for Uy, Initial residual = 0.0015851, Final residual = 1.44793e-05, No Iterations 11
GAMG:  Solving for p, Initial residual = 0.00366875, Final residual = 3.66424e-05, No Iterations 842
time step continuity errors : sum local = 2.20233e-06, global = 1.96014e-07, cumulative = 0.0183573
smoothSolver:  Solving for epsilon, Initial residual = 0.00883997, Final residual = 6.00967e-05, No Iterations 10
smoothSolver:  Solving for k, Initial residual = 0.0317812, Final residual = 0.000265233, No Iterations 11
ExecutionTime = 220.3 s  ClockTime = 220 s

Time = 57

smoothSolver:  Solving for Ux, Initial residual = 0.000762287, Final residual = 6.82197e-06, No Iterations 11
smoothSolver:  Solving for Uy, Initial residual = 0.0015673, Final residual = 1.43131e-05, No Iterations 11
GAMG:  Solving for p, Initial residual = 0.00353656, Final residual = 3.53469e-05, No Iterations 862
time step continuity errors : sum local = 2.07875e-06, global = 1.84894e-07, cumulative = 0.0183575
smoothSolver:  Solving for epsilon, Initial residual = 0.00894787, Final residual = 5.98712e-05, No Iterations 10
smoothSolver:  Solving for k, Initial residual = 0.0323232, Final residual = 0.000266682, No Iterations 11
ExecutionTime = 224.04 s  ClockTime = 224 s

Time = 58

smoothSolver:  Solving for Ux, Initial residual = 0.00076123, Final residual = 6.80047e-06, No Iterations 11
smoothSolver:  Solving for Uy, Initial residual = 0.00155111, Final residual = 1.41593e-05, No Iterations 11
GAMG:  Solving for p, Initial residual = 0.00345778, Final residual = 3.4574e-05, No Iterations 878
time step continuity errors : sum local = 1.98778e-06, global = 1.76345e-07, cumulative = 0.0183577
smoothSolver:  Solving for epsilon, Initial residual = 0.00903416, Final residual = 5.94571e-05, No Iterations 10
smoothSolver:  Solving for k, Initial residual = 0.0328526, Final residual = 0.000268359, No Iterations 11
ExecutionTime = 227.85 s  ClockTime = 228 s

Time = 59

smoothSolver:  Solving for Ux, Initial residual = 0.000759487, Final residual = 6.77148e-06, No Iterations 11
smoothSolver:  Solving for Uy, Initial residual = 0.00153719, Final residual = 1.40278e-05, No Iterations 11
GAMG:  Solving for p, Initial residual = 0.00337898, Final residual = 3.37076e-05, No Iterations 896
time step continuity errors : sum local = 1.89553e-06, global = 1.68384e-07, cumulative = 0.0183578
smoothSolver:  Solving for epsilon, Initial residual = 0.00910196, Final residual = 5.88359e-05, No Iterations 10
smoothSolver:  Solving for k, Initial residual = 0.0334056, Final residual = 0.000272273, No Iterations 11
ExecutionTime = 231.77 s  ClockTime = 232 s

Time = 60

smoothSolver:  Solving for Ux, Initial residual = 0.000757741, Final residual = 6.73876e-06, No Iterations 11
smoothSolver:  Solving for Uy, Initial residual = 0.00152447, Final residual = 1.38982e-05, No Iterations 11
GAMG:  Solving for p, Initial residual = 0.00333193, Final residual = 3.3243e-05, No Iterations 914
time step continuity errors : sum local = 1.82448e-06, global = 1.62447e-07, cumulative = 0.018358
smoothSolver:  Solving for epsilon, Initial residual = 0.00915131, Final residual = 5.81732e-05, No Iterations 10
smoothSolver:  Solving for k, Initial residual = 0.0338592, Final residual = 0.000271677, No Iterations 11
ExecutionTime = 235.77 s  ClockTime = 236 s

Time = 61

smoothSolver:  Solving for Ux, Initial residual = 0.000755307, Final residual = 6.69879e-06, No Iterations 11
smoothSolver:  Solving for Uy, Initial residual = 0.00150746, Final residual = 1.37835e-05, No Iterations 11
GAMG:  Solving for p, Initial residual = 0.00330835, Final residual = 3.29587e-05, No Iterations 924
time step continuity errors : sum local = 1.76262e-06, global = 1.567e-07, cumulative = 0.0183581
smoothSolver:  Solving for epsilon, Initial residual = 0.00918205, Final residual = 9.08611e-05, No Iterations 9
smoothSolver:  Solving for k, Initial residual = 0.034344, Final residual = 0.000273549, No Iterations 11
ExecutionTime = 239.68 s  ClockTime = 240 s

Time = 62

smoothSolver:  Solving for Ux, Initial residual = 0.000754029, Final residual = 6.6661e-06, No Iterations 11
smoothSolver:  Solving for Uy, Initial residual = 0.00149228, Final residual = 1.36763e-05, No Iterations 11
GAMG:  Solving for p, Initial residual = 0.00327929, Final residual = 3.26784e-05, No Iterations 944
time step continuity errors : sum local = 1.70536e-06, global = 1.52183e-07, cumulative = 0.0183583
smoothSolver:  Solving for epsilon, Initial residual = 0.00920654, Final residual = 8.93644e-05, No Iterations 9
smoothSolver:  Solving for k, Initial residual = 0.0348116, Final residual = 0.000274596, No Iterations 11
ExecutionTime = 243.27 s  ClockTime = 243 s

Time = 63

smoothSolver:  Solving for Ux, Initial residual = 0.000752375, Final residual = 6.62781e-06, No Iterations 11
smoothSolver:  Solving for Uy, Initial residual = 0.00147833, Final residual = 1.35892e-05, No Iterations 11
GAMG:  Solving for p, Initial residual = 0.00328703, Final residual = 3.28679e-05, No Iterations 954
time step continuity errors : sum local = 1.67038e-06, global = 1.49256e-07, cumulative = 0.0183584
smoothSolver:  Solving for epsilon, Initial residual = 0.00921663, Final residual = 8.78586e-05, No Iterations 9
smoothSolver:  Solving for k, Initial residual = 0.0352292, Final residual = 0.000273806, No Iterations 11
ExecutionTime = 246.25 s  ClockTime = 246 s

Time = 64

smoothSolver:  Solving for Ux, Initial residual = 0.000750185, Final residual = 6.5845e-06, No Iterations 11
smoothSolver:  Solving for Uy, Initial residual = 0.00146644, Final residual = 1.34922e-05, No Iterations 11
GAMG:  Solving for p, Initial residual = 0.00331878, Final residual = 3.31508e-05, No Iterations 964
time step continuity errors : sum local = 1.63663e-06, global = 1.46114e-07, cumulative = 0.0183586
smoothSolver:  Solving for epsilon, Initial residual = 0.00920754, Final residual = 8.62219e-05, No Iterations 9
smoothSolver:  Solving for k, Initial residual = 0.0356895, Final residual = 0.000275257, No Iterations 11
ExecutionTime = 249.33 s  ClockTime = 249 s

Time = 65

smoothSolver:  Solving for Ux, Initial residual = 0.000747704, Final residual = 6.53879e-06, No Iterations 11
smoothSolver:  Solving for Uy, Initial residual = 0.0014602, Final residual = 1.34199e-05, No Iterations 11
GAMG:  Solving for p, Initial residual = 0.00336146, Final residual = 3.3588e-05, No Iterations 972
time step continuity errors : sum local = 1.61209e-06, global = 1.4446e-07, cumulative = 0.0183587
smoothSolver:  Solving for epsilon, Initial residual = 0.00918034, Final residual = 8.4222e-05, No Iterations 9
smoothSolver:  Solving for k, Initial residual = 0.0361282, Final residual = 0.000277303, No Iterations 11
ExecutionTime = 252.43 s  ClockTime = 252 s

Time = 66

smoothSolver:  Solving for Ux, Initial residual = 0.00074468, Final residual = 6.49322e-06, No Iterations 11
smoothSolver:  Solving for Uy, Initial residual = 0.00145339, Final residual = 1.3334e-05, No Iterations 11
GAMG:  Solving for p, Initial residual = 0.00337955, Final residual = 3.37068e-05, No Iterations 990
time step continuity errors : sum local = 1.57081e-06, global = 1.40785e-07, cumulative = 0.0183589
smoothSolver:  Solving for epsilon, Initial residual = 0.00913912, Final residual = 8.2368e-05, No Iterations 9
smoothSolver:  Solving for k, Initial residual = 0.0364766, Final residual = 0.000275664, No Iterations 11
ExecutionTime = 255.6 s  ClockTime = 256 s

Time = 67

smoothSolver:  Solving for Ux, Initial residual = 0.000741069, Final residual = 6.44349e-06, No Iterations 11
smoothSolver:  Solving for Uy, Initial residual = 0.00144375, Final residual = 1.3234e-05, No Iterations 11
GAMG:  Solving for p, Initial residual = 0.00337545, Final residual = 3.38106e-05, No Iterations 1000
time step continuity errors : sum local = 1.52726e-06, global = 1.37414e-07, cumulative = 0.018359
smoothSolver:  Solving for epsilon, Initial residual = 0.00907438, Final residual = 7.99524e-05, No Iterations 9
smoothSolver:  Solving for k, Initial residual = 0.0368202, Final residual = 0.000275648, No Iterations 11
ExecutionTime = 258.82 s  ClockTime = 259 s

Time = 68

smoothSolver:  Solving for Ux, Initial residual = 0.000737497, Final residual = 6.39448e-06, No Iterations 11
smoothSolver:  Solving for Uy, Initial residual = 0.00143557, Final residual = 1.31702e-05, No Iterations 11
GAMG:  Solving for p, Initial residual = 0.00333247, Final residual = 3.52947e-05, No Iterations 1000
time step continuity errors : sum local = 1.5437e-06, global = 1.39602e-07, cumulative = 0.0183591
smoothSolver:  Solving for epsilon, Initial residual = 0.00900151, Final residual = 7.77982e-05, No Iterations 9
smoothSolver:  Solving for k, Initial residual = 0.0371737, Final residual = 0.000275214, No Iterations 11
ExecutionTime = 262.03 s  ClockTime = 262 s

Time = 69

smoothSolver:  Solving for Ux, Initial residual = 0.000733907, Final residual = 6.34578e-06, No Iterations 11
smoothSolver:  Solving for Uy, Initial residual = 0.00142257, Final residual = 1.31062e-05, No Iterations 11
GAMG:  Solving for p, Initial residual = 0.00331392, Final residual = 3.69043e-05, No Iterations 1000
time step continuity errors : sum local = 1.55979e-06, global = 1.4173e-07, cumulative = 0.0183593
smoothSolver:  Solving for epsilon, Initial residual = 0.0089064, Final residual = 7.52584e-05, No Iterations 9
smoothSolver:  Solving for k, Initial residual = 0.0374962, Final residual = 0.000275249, No Iterations 11
ExecutionTime = 265.24 s  ClockTime = 265 s

Time = 70

smoothSolver:  Solving for Ux, Initial residual = 0.000730617, Final residual = 6.30139e-06, No Iterations 11
smoothSolver:  Solving for Uy, Initial residual = 0.00141343, Final residual = 1.30377e-05, No Iterations 11
GAMG:  Solving for p, Initial residual = 0.00338458, Final residual = 3.91928e-05, No Iterations 1000
time step continuity errors : sum local = 1.5981e-06, global = 1.4528e-07, cumulative = 0.0183594
smoothSolver:  Solving for epsilon, Initial residual = 0.00880386, Final residual = 7.27422e-05, No Iterations 9
smoothSolver:  Solving for k, Initial residual = 0.0378086, Final residual = 0.000273137, No Iterations 11
ExecutionTime = 268.44 s  ClockTime = 268 s

Time = 71

smoothSolver:  Solving for Ux, Initial residual = 0.000727636, Final residual = 6.25599e-06, No Iterations 11
smoothSolver:  Solving for Uy, Initial residual = 0.00140931, Final residual = 1.29875e-05, No Iterations 11
GAMG:  Solving for p, Initial residual = 0.00347173, Final residual = 4.12641e-05, No Iterations 1000
time step continuity errors : sum local = 1.61943e-06, global = 1.46948e-07, cumulative = 0.0183596
smoothSolver:  Solving for epsilon, Initial residual = 0.00869002, Final residual = 7.02625e-05, No Iterations 9
smoothSolver:  Solving for k, Initial residual = 0.0380822, Final residual = 0.000272846, No Iterations 11
ExecutionTime = 271.59 s  ClockTime = 272 s

Time = 72

smoothSolver:  Solving for Ux, Initial residual = 0.000725496, Final residual = 6.21792e-06, No Iterations 11
smoothSolver:  Solving for Uy, Initial residual = 0.00141003, Final residual = 1.29371e-05, No Iterations 11
GAMG:  Solving for p, Initial residual = 0.00362286, Final residual = 4.37514e-05, No Iterations 1000
time step continuity errors : sum local = 1.65044e-06, global = 1.4954e-07, cumulative = 0.0183597
smoothSolver:  Solving for epsilon, Initial residual = 0.00856394, Final residual = 6.75601e-05, No Iterations 9
smoothSolver:  Solving for k, Initial residual = 0.0382395, Final residual = 0.000268186, No Iterations 11
ExecutionTime = 275.25 s  ClockTime = 275 s

Time = 73

smoothSolver:  Solving for Ux, Initial residual = 0.00072382, Final residual = 6.18256e-06, No Iterations 11
smoothSolver:  Solving for Uy, Initial residual = 0.00140866, Final residual = 1.29022e-05, No Iterations 11
GAMG:  Solving for p, Initial residual = 0.00371993, Final residual = 4.57991e-05, No Iterations 1000
time step continuity errors : sum local = 1.6577e-06, global = 1.50857e-07, cumulative = 0.0183599
smoothSolver:  Solving for epsilon, Initial residual = 0.00843792, Final residual = 6.51175e-05, No Iterations 9
smoothSolver:  Solving for k, Initial residual = 0.0385099, Final residual = 0.000267914, No Iterations 11
ExecutionTime = 279.42 s  ClockTime = 279 s

Time = 74

smoothSolver:  Solving for Ux, Initial residual = 0.000722769, Final residual = 6.15497e-06, No Iterations 11
smoothSolver:  Solving for Uy, Initial residual = 0.00140398, Final residual = 1.28774e-05, No Iterations 11
GAMG:  Solving for p, Initial residual = 0.00380059, Final residual = 4.86062e-05, No Iterations 1000
time step continuity errors : sum local = 1.6828e-06, global = 1.5387e-07, cumulative = 0.01836
smoothSolver:  Solving for epsilon, Initial residual = 0.00828908, Final residual = 6.21934e-05, No Iterations 9
smoothSolver:  Solving for k, Initial residual = 0.0386087, Final residual = 0.000262914, No Iterations 11
ExecutionTime = 283.62 s  ClockTime = 284 s

Time = 75

smoothSolver:  Solving for Ux, Initial residual = 0.000722408, Final residual = 6.12974e-06, No Iterations 11
smoothSolver:  Solving for Uy, Initial residual = 0.00140105, Final residual = 1.28662e-05, No Iterations 11
GAMG:  Solving for p, Initial residual = 0.00387017, Final residual = 5.11143e-05, No Iterations 1000
time step continuity errors : sum local = 1.68788e-06, global = 1.5558e-07, cumulative = 0.0183602
smoothSolver:  Solving for epsilon, Initial residual = 0.00814206, Final residual = 5.9548e-05, No Iterations 9
smoothSolver:  Solving for k, Initial residual = 0.038801, Final residual = 0.000260071, No Iterations 11
ExecutionTime = 287.64 s  ClockTime = 288 s

Time = 76

smoothSolver:  Solving for Ux, Initial residual = 0.000722354, Final residual = 6.10917e-06, No Iterations 11
smoothSolver:  Solving for Uy, Initial residual = 0.00139682, Final residual = 1.28353e-05, No Iterations 11
GAMG:  Solving for p, Initial residual = 0.00375563, Final residual = 5.1936e-05, No Iterations 1000
time step continuity errors : sum local = 1.70461e-06, global = 1.58536e-07, cumulative = 0.0183604
smoothSolver:  Solving for epsilon, Initial residual = 0.00799052, Final residual = 5.68113e-05, No Iterations 9
smoothSolver:  Solving for k, Initial residual = 0.0389739, Final residual = 0.000257254, No Iterations 11
ExecutionTime = 291.71 s  ClockTime = 292 s

Time = 77

smoothSolver:  Solving for Ux, Initial residual = 0.000722594, Final residual = 6.09469e-06, No Iterations 11
smoothSolver:  Solving for Uy, Initial residual = 0.00140136, Final residual = 1.28263e-05, No Iterations 11
GAMG:  Solving for p, Initial residual = 0.00349533, Final residual = 5.0048e-05, No Iterations 1000
time step continuity errors : sum local = 1.72171e-06, global = 1.61744e-07, cumulative = 0.0183605
smoothSolver:  Solving for epsilon, Initial residual = 0.00783171, Final residual = 5.39457e-05, No Iterations 9
smoothSolver:  Solving for k, Initial residual = 0.0390845, Final residual = 0.000255241, No Iterations 11
ExecutionTime = 295.81 s  ClockTime = 296 s

Time = 78

smoothSolver:  Solving for Ux, Initial residual = 0.00072396, Final residual = 6.08855e-06, No Iterations 11
smoothSolver:  Solving for Uy, Initial residual = 0.00140347, Final residual = 1.27929e-05, No Iterations 11
GAMG:  Solving for p, Initial residual = 0.00328306, Final residual = 4.87151e-05, No Iterations 1000
time step continuity errors : sum local = 1.7542e-06, global = 1.66326e-07, cumulative = 0.0183607
smoothSolver:  Solving for epsilon, Initial residual = 0.00767102, Final residual = 5.15809e-05, No Iterations 9
smoothSolver:  Solving for k, Initial residual = 0.0391495, Final residual = 0.000389514, No Iterations 10
ExecutionTime = 299.94 s  ClockTime = 300 s

Time = 79

smoothSolver:  Solving for Ux, Initial residual = 0.000723531, Final residual = 6.07165e-06, No Iterations 11
smoothSolver:  Solving for Uy, Initial residual = 0.00140545, Final residual = 1.28009e-05, No Iterations 11
GAMG:  Solving for p, Initial residual = 0.00305658, Final residual = 4.60652e-05, No Iterations 1000
time step continuity errors : sum local = 1.73565e-06, global = 1.65752e-07, cumulative = 0.0183608
smoothSolver:  Solving for epsilon, Initial residual = 0.00749433, Final residual = 4.8701e-05, No Iterations 9
smoothSolver:  Solving for k, Initial residual = 0.0391875, Final residual = 0.000382415, No Iterations 10
ExecutionTime = 304.03 s  ClockTime = 304 s

Time = 80

smoothSolver:  Solving for Ux, Initial residual = 0.000724978, Final residual = 6.06584e-06, No Iterations 11
smoothSolver:  Solving for Uy, Initial residual = 0.0014094, Final residual = 1.28134e-05, No Iterations 11
GAMG:  Solving for p, Initial residual = 0.00286923, Final residual = 4.4564e-05, No Iterations 1000
time step continuity errors : sum local = 1.75433e-06, global = 1.691e-07, cumulative = 0.018361
smoothSolver:  Solving for epsilon, Initial residual = 0.00732129, Final residual = 4.6354e-05, No Iterations 9
smoothSolver:  Solving for k, Initial residual = 0.0392129, Final residual = 0.000379699, No Iterations 10
ExecutionTime = 308.15 s  ClockTime = 308 s

Time = 81

smoothSolver:  Solving for Ux, Initial residual = 0.000727982, Final residual = 6.06843e-06, No Iterations 11
smoothSolver:  Solving for Uy, Initial residual = 0.0014087, Final residual = 1.28401e-05, No Iterations 11
GAMG:  Solving for p, Initial residual = 0.0026774, Final residual = 4.34723e-05, No Iterations 1000
time step continuity errors : sum local = 1.78588e-06, global = 1.73759e-07, cumulative = 0.0183612
smoothSolver:  Solving for epsilon, Initial residual = 0.00714812, Final residual = 7.09943e-05, No Iterations 8
smoothSolver:  Solving for k, Initial residual = 0.039229, Final residual = 0.000372413, No Iterations 10
ExecutionTime = 312.29 s  ClockTime = 312 s

Time = 82

smoothSolver:  Solving for Ux, Initial residual = 0.000733684, Final residual = 6.09539e-06, No Iterations 11
smoothSolver:  Solving for Uy, Initial residual = 0.00141774, Final residual = 1.289e-05, No Iterations 11
GAMG:  Solving for p, Initial residual = 0.00252644, Final residual = 4.2813e-05, No Iterations 1000
time step continuity errors : sum local = 1.83268e-06, global = 1.79461e-07, cumulative = 0.0183614
smoothSolver:  Solving for epsilon, Initial residual = 0.0069912, Final residual = 6.71166e-05, No Iterations 8
smoothSolver:  Solving for k, Initial residual = 0.0392624, Final residual = 0.00036803, No Iterations 10
ExecutionTime = 316.45 s  ClockTime = 316 s

Time = 83

smoothSolver:  Solving for Ux, Initial residual = 0.000738747, Final residual = 6.1238e-06, No Iterations 11
smoothSolver:  Solving for Uy, Initial residual = 0.0014266, Final residual = 1.29215e-05, No Iterations 11
GAMG:  Solving for p, Initial residual = 0.00237095, Final residual = 4.2018e-05, No Iterations 1000
time step continuity errors : sum local = 1.87307e-06, global = 1.85626e-07, cumulative = 0.0183616
smoothSolver:  Solving for epsilon, Initial residual = 0.00683291, Final residual = 6.35189e-05, No Iterations 8
smoothSolver:  Solving for k, Initial residual = 0.0392399, Final residual = 0.000361129, No Iterations 10
ExecutionTime = 320.55 s  ClockTime = 321 s

Time = 84

smoothSolver:  Solving for Ux, Initial residual = 0.000743791, Final residual = 6.15497e-06, No Iterations 11
smoothSolver:  Solving for Uy, Initial residual = 0.00142844, Final residual = 1.29296e-05, No Iterations 11
GAMG:  Solving for p, Initial residual = 0.00223276, Final residual = 4.05199e-05, No Iterations 1000
time step continuity errors : sum local = 1.88408e-06, global = 1.89643e-07, cumulative = 0.0183617
smoothSolver:  Solving for epsilon, Initial residual = 0.00666955, Final residual = 5.97093e-05, No Iterations 8
smoothSolver:  Solving for k, Initial residual = 0.039209, Final residual = 0.000352929, No Iterations 10
ExecutionTime = 324.72 s  ClockTime = 325 s

Time = 85

smoothSolver:  Solving for Ux, Initial residual = 0.000750366, Final residual = 6.19097e-06, No Iterations 11
smoothSolver:  Solving for Uy, Initial residual = 0.00143439, Final residual = 1.29341e-05, No Iterations 11
GAMG:  Solving for p, Initial residual = 0.00211959, Final residual = 3.91052e-05, No Iterations 1000
time step continuity errors : sum local = 1.89035e-06, global = 1.92973e-07, cumulative = 0.0183619
smoothSolver:  Solving for epsilon, Initial residual = 0.00651493, Final residual = 5.64839e-05, No Iterations 8
smoothSolver:  Solving for k, Initial residual = 0.0391683, Final residual = 0.000346679, No Iterations 10
ExecutionTime = 328.83 s  ClockTime = 329 s

Time = 86

smoothSolver:  Solving for Ux, Initial residual = 0.000757911, Final residual = 6.23303e-06, No Iterations 11
smoothSolver:  Solving for Uy, Initial residual = 0.00144349, Final residual = 1.29634e-05, No Iterations 11
GAMG:  Solving for p, Initial residual = 0.00202254, Final residual = 3.79164e-05, No Iterations 1000
time step continuity errors : sum local = 1.904e-06, global = 1.96795e-07, cumulative = 0.0183621
smoothSolver:  Solving for epsilon, Initial residual = 0.00635467, Final residual = 5.26739e-05, No Iterations 8
smoothSolver:  Solving for k, Initial residual = 0.039052, Final residual = 0.000337433, No Iterations 10
ExecutionTime = 332.99 s  ClockTime = 333 s

Time = 87

smoothSolver:  Solving for Ux, Initial residual = 0.000765907, Final residual = 6.28342e-06, No Iterations 11
smoothSolver:  Solving for Uy, Initial residual = 0.00144868, Final residual = 1.29826e-05, No Iterations 11
GAMG:  Solving for p, Initial residual = 0.00193505, Final residual = 3.71834e-05, No Iterations 1000
time step continuity errors : sum local = 1.93755e-06, global = 2.02456e-07, cumulative = 0.0183623
smoothSolver:  Solving for epsilon, Initial residual = 0.00619751, Final residual = 4.95851e-05, No Iterations 8
smoothSolver:  Solving for k, Initial residual = 0.0390521, Final residual = 0.000334458, No Iterations 10
ExecutionTime = 337.13 s  ClockTime = 337 s

Time = 88

smoothSolver:  Solving for Ux, Initial residual = 0.000773603, Final residual = 6.33877e-06, No Iterations 11
smoothSolver:  Solving for Uy, Initial residual = 0.00145828, Final residual = 1.30192e-05, No Iterations 11
GAMG:  Solving for p, Initial residual = 0.0018113, Final residual = 3.63199e-05, No Iterations 1000
time step continuity errors : sum local = 1.96534e-06, global = 2.08327e-07, cumulative = 0.0183625
smoothSolver:  Solving for epsilon, Initial residual = 0.00603792, Final residual = 4.62719e-05, No Iterations 8
smoothSolver:  Solving for k, Initial residual = 0.0389322, Final residual = 0.00032613, No Iterations 10
ExecutionTime = 341.29 s  ClockTime = 341 s

Time = 89

smoothSolver:  Solving for Ux, Initial residual = 0.00078242, Final residual = 6.40074e-06, No Iterations 11
smoothSolver:  Solving for Uy, Initial residual = 0.00146409, Final residual = 1.29947e-05, No Iterations 11
GAMG:  Solving for p, Initial residual = 0.00173634, Final residual = 3.54481e-05, No Iterations 1000
time step continuity errors : sum local = 1.98863e-06, global = 2.13942e-07, cumulative = 0.0183628
smoothSolver:  Solving for epsilon, Initial residual = 0.00588166, Final residual = 4.3093e-05, No Iterations 8
smoothSolver:  Solving for k, Initial residual = 0.0387307, Final residual = 0.000311596, No Iterations 10
ExecutionTime = 345.47 s  ClockTime = 345 s

Time = 90

smoothSolver:  Solving for Ux, Initial residual = 0.000791222, Final residual = 6.45992e-06, No Iterations 11
smoothSolver:  Solving for Uy, Initial residual = 0.00147151, Final residual = 1.30234e-05, No Iterations 11
GAMG:  Solving for p, Initial residual = 0.00167097, Final residual = 3.42262e-05, No Iterations 1000
time step continuity errors : sum local = 1.99166e-06, global = 2.17787e-07, cumulative = 0.018363
smoothSolver:  Solving for epsilon, Initial residual = 0.00572546, Final residual = 4.01562e-05, No Iterations 8
smoothSolver:  Solving for k, Initial residual = 0.0386646, Final residual = 0.000309762, No Iterations 10
ExecutionTime = 349.58 s  ClockTime = 350 s

Time = 91

smoothSolver:  Solving for Ux, Initial residual = 0.000800937, Final residual = 6.53617e-06, No Iterations 11
smoothSolver:  Solving for Uy, Initial residual = 0.00148318, Final residual = 1.3039e-05, No Iterations 11
GAMG:  Solving for p, Initial residual = 0.00161407, Final residual = 3.36481e-05, No Iterations 1000
time step continuity errors : sum local = 2.03223e-06, global = 2.26102e-07, cumulative = 0.0183632
smoothSolver:  Solving for epsilon, Initial residual = 0.00557536, Final residual = 3.75885e-05, No Iterations 8
smoothSolver:  Solving for k, Initial residual = 0.0386007, Final residual = 0.000301341, No Iterations 10
ExecutionTime = 353.75 s  ClockTime = 354 s

Time = 92

smoothSolver:  Solving for Ux, Initial residual = 0.000810759, Final residual = 6.60963e-06, No Iterations 11
smoothSolver:  Solving for Uy, Initial residual = 0.00149364, Final residual = 1.3044e-05, No Iterations 11
GAMG:  Solving for p, Initial residual = 0.00153111, Final residual = 3.25382e-05, No Iterations 1000
time step continuity errors : sum local = 2.03653e-06, global = 2.30777e-07, cumulative = 0.0183634
smoothSolver:  Solving for epsilon, Initial residual = 0.00542186, Final residual = 3.47954e-05, No Iterations 8
smoothSolver:  Solving for k, Initial residual = 0.0384529, Final residual = 0.000294437, No Iterations 10
ExecutionTime = 357.9 s  ClockTime = 358 s

Time = 93

smoothSolver:  Solving for Ux, Initial residual = 0.00082113, Final residual = 6.69086e-06, No Iterations 11
smoothSolver:  Solving for Uy, Initial residual = 0.00149937, Final residual = 1.30228e-05, No Iterations 11
GAMG:  Solving for p, Initial residual = 0.00147294, Final residual = 3.20096e-05, No Iterations 1000
time step continuity errors : sum local = 2.06808e-06, global = 2.38234e-07, cumulative = 0.0183637
smoothSolver:  Solving for epsilon, Initial residual = 0.00527054, Final residual = 3.24073e-05, No Iterations 8
smoothSolver:  Solving for k, Initial residual = 0.0382701, Final residual = 0.000285711, No Iterations 10
ExecutionTime = 362.1 s  ClockTime = 362 s

Time = 94

smoothSolver:  Solving for Ux, Initial residual = 0.000831267, Final residual = 6.7807e-06, No Iterations 11
smoothSolver:  Solving for Uy, Initial residual = 0.00150658, Final residual = 1.30084e-05, No Iterations 11
GAMG:  Solving for p, Initial residual = 0.00140523, Final residual = 3.08909e-05, No Iterations 1000
time step continuity errors : sum local = 2.06079e-06, global = 2.41506e-07, cumulative = 0.0183639
smoothSolver:  Solving for epsilon, Initial residual = 0.00511085, Final residual = 4.97737e-05, No Iterations 7
smoothSolver:  Solving for k, Initial residual = 0.0381174, Final residual = 0.000277353, No Iterations 10
ExecutionTime = 366.31 s  ClockTime = 366 s

Time = 95

smoothSolver:  Solving for Ux, Initial residual = 0.000844081, Final residual = 6.90001e-06, No Iterations 11
smoothSolver:  Solving for Uy, Initial residual = 0.00151678, Final residual = 1.30217e-05, No Iterations 11
GAMG:  Solving for p, Initial residual = 0.00133766, Final residual = 3.04225e-05, No Iterations 1000
time step continuity errors : sum local = 2.09992e-06, global = 2.5056e-07, cumulative = 0.0183642
smoothSolver:  Solving for epsilon, Initial residual = 0.00496899, Final residual = 4.61347e-05, No Iterations 7
smoothSolver:  Solving for k, Initial residual = 0.0378789, Final residual = 0.000268318, No Iterations 10
ExecutionTime = 370.53 s  ClockTime = 371 s

Time = 96

smoothSolver:  Solving for Ux, Initial residual = 0.000856998, Final residual = 7.01624e-06, No Iterations 11
smoothSolver:  Solving for Uy, Initial residual = 0.00152562, Final residual = 1.30009e-05, No Iterations 11
GAMG:  Solving for p, Initial residual = 0.00127977, Final residual = 2.9466e-05, No Iterations 1000
time step continuity errors : sum local = 2.11047e-06, global = 2.56694e-07, cumulative = 0.0183644
smoothSolver:  Solving for epsilon, Initial residual = 0.00482616, Final residual = 4.30258e-05, No Iterations 7
smoothSolver:  Solving for k, Initial residual = 0.0375834, Final residual = 0.000259046, No Iterations 10
ExecutionTime = 374.69 s  ClockTime = 375 s

Time = 97

smoothSolver:  Solving for Ux, Initial residual = 0.000869813, Final residual = 7.13403e-06, No Iterations 11
smoothSolver:  Solving for Uy, Initial residual = 0.00152877, Final residual = 1.29589e-05, No Iterations 11
GAMG:  Solving for p, Initial residual = 0.00122935, Final residual = 2.83251e-05, No Iterations 1000
time step continuity errors : sum local = 2.10436e-06, global = 2.61376e-07, cumulative = 0.0183647
smoothSolver:  Solving for epsilon, Initial residual = 0.00468003, Final residual = 3.96008e-05, No Iterations 7
smoothSolver:  Solving for k, Initial residual = 0.0372507, Final residual = 0.000249385, No Iterations 10
ExecutionTime = 378.9 s  ClockTime = 379 s

Time = 98

smoothSolver:  Solving for Ux, Initial residual = 0.000883259, Final residual = 7.25958e-06, No Iterations 11
smoothSolver:  Solving for Uy, Initial residual = 0.0015332, Final residual = 1.29463e-05, No Iterations 11
GAMG:  Solving for p, Initial residual = 0.00115001, Final residual = 2.70614e-05, No Iterations 1000
time step continuity errors : sum local = 2.08693e-06, global = 2.63983e-07, cumulative = 0.0183649
smoothSolver:  Solving for epsilon, Initial residual = 0.00453629, Final residual = 3.65697e-05, No Iterations 7
smoothSolver:  Solving for k, Initial residual = 0.0370582, Final residual = 0.000241663, No Iterations 10
ExecutionTime = 383.12 s  ClockTime = 383 s

Time = 99

smoothSolver:  Solving for Ux, Initial residual = 0.000896238, Final residual = 7.39183e-06, No Iterations 11
smoothSolver:  Solving for Uy, Initial residual = 0.00154448, Final residual = 1.29502e-05, No Iterations 11
GAMG:  Solving for p, Initial residual = 0.00111014, Final residual = 2.6147e-05, No Iterations 1000
time step continuity errors : sum local = 2.09452e-06, global = 2.7104e-07, cumulative = 0.0183652
smoothSolver:  Solving for epsilon, Initial residual = 0.00439416, Final residual = 3.40489e-05, No Iterations 7
smoothSolver:  Solving for k, Initial residual = 0.0365765, Final residual = 0.000234237, No Iterations 10
ExecutionTime = 387.38 s  ClockTime = 387 s

Time = 100

smoothSolver:  Solving for Ux, Initial residual = 0.00091065, Final residual = 7.5279e-06, No Iterations 11
smoothSolver:  Solving for Uy, Initial residual = 0.0015407, Final residual = 1.28685e-05, No Iterations 11
GAMG:  Solving for p, Initial residual = 0.00106636, Final residual = 2.47072e-05, No Iterations 1000
time step continuity errors : sum local = 2.05777e-06, global = 2.71947e-07, cumulative = 0.0183655
smoothSolver:  Solving for epsilon, Initial residual = 0.00424653, Final residual = 3.10687e-05, No Iterations 7
smoothSolver:  Solving for k, Initial residual = 0.0360474, Final residual = 0.000355746, No Iterations 9
ExecutionTime = 391.49 s  ClockTime = 392 s

Time = 101

smoothSolver:  Solving for Ux, Initial residual = 0.000923868, Final residual = 7.64938e-06, No Iterations 11
smoothSolver:  Solving for Uy, Initial residual = 0.0015425, Final residual = 1.28135e-05, No Iterations 11
GAMG:  Solving for p, Initial residual = 0.00102045, Final residual = 2.32342e-05, No Iterations 1000
time step continuity errors : sum local = 2.00544e-06, global = 2.70342e-07, cumulative = 0.0183658
smoothSolver:  Solving for epsilon, Initial residual = 0.00409786, Final residual = 2.82797e-05, No Iterations 7
smoothSolver:  Solving for k, Initial residual = 0.0355956, Final residual = 0.00034593, No Iterations 9
ExecutionTime = 395.64 s  ClockTime = 396 s

Time = 102

smoothSolver:  Solving for Ux, Initial residual = 0.000937671, Final residual = 7.78345e-06, No Iterations 11
smoothSolver:  Solving for Uy, Initial residual = 0.00154729, Final residual = 1.27386e-05, No Iterations 11
GAMG:  Solving for p, Initial residual = 0.000978694, Final residual = 2.23186e-05, No Iterations 1000
time step continuity errors : sum local = 1.99293e-06, global = 2.73448e-07, cumulative = 0.018366
smoothSolver:  Solving for epsilon, Initial residual = 0.00395565, Final residual = 2.59763e-05, No Iterations 7
smoothSolver:  Solving for k, Initial residual = 0.0350214, Final residual = 0.000331052, No Iterations 9
ExecutionTime = 399.75 s  ClockTime = 400 s

Time = 103

smoothSolver:  Solving for Ux, Initial residual = 0.000951688, Final residual = 7.92222e-06, No Iterations 11
smoothSolver:  Solving for Uy, Initial residual = 0.00155032, Final residual = 1.26532e-05, No Iterations 11
GAMG:  Solving for p, Initial residual = 0.00093052, Final residual = 2.14064e-05, No Iterations 1000
time step continuity errors : sum local = 1.97744e-06, global = 2.75643e-07, cumulative = 0.0183663
smoothSolver:  Solving for epsilon, Initial residual = 0.00381379, Final residual = 2.34968e-05, No Iterations 7
smoothSolver:  Solving for k, Initial residual = 0.0343549, Final residual = 0.000317064, No Iterations 9
ExecutionTime = 403.92 s  ClockTime = 404 s

Time = 104

smoothSolver:  Solving for Ux, Initial residual = 0.000966526, Final residual = 8.06878e-06, No Iterations 11
smoothSolver:  Solving for Uy, Initial residual = 0.00153957, Final residual = 1.25467e-05, No Iterations 11
GAMG:  Solving for p, Initial residual = 0.000893137, Final residual = 2.05652e-05, No Iterations 1000
time step continuity errors : sum local = 1.95526e-06, global = 2.76543e-07, cumulative = 0.0183666
smoothSolver:  Solving for epsilon, Initial residual = 0.00367572, Final residual = 2.14617e-05, No Iterations 7
smoothSolver:  Solving for k, Initial residual = 0.0336989, Final residual = 0.000298787, No Iterations 9
ExecutionTime = 408.1 s  ClockTime = 408 s

Time = 105

smoothSolver:  Solving for Ux, Initial residual = 0.000981266, Final residual = 8.21365e-06, No Iterations 11
smoothSolver:  Solving for Uy, Initial residual = 0.00153805, Final residual = 1.25011e-05, No Iterations 11
GAMG:  Solving for p, Initial residual = 0.000863897, Final residual = 1.98499e-05, No Iterations 1000
time step continuity errors : sum local = 1.93771e-06, global = 2.77218e-07, cumulative = 0.0183669
smoothSolver:  Solving for epsilon, Initial residual = 0.00353717, Final residual = 3.37446e-05, No Iterations 6
smoothSolver:  Solving for k, Initial residual = 0.0329176, Final residual = 0.000283415, No Iterations 9
ExecutionTime = 412.26 s  ClockTime = 412 s

Time = 106

smoothSolver:  Solving for Ux, Initial residual = 0.000998627, Final residual = 8.39091e-06, No Iterations 11
smoothSolver:  Solving for Uy, Initial residual = 0.0015445, Final residual = 1.24204e-05, No Iterations 11
GAMG:  Solving for p, Initial residual = 0.000845553, Final residual = 1.97933e-05, No Iterations 1000
time step continuity errors : sum local = 1.95918e-06, global = 2.82564e-07, cumulative = 0.0183671
smoothSolver:  Solving for epsilon, Initial residual = 0.0034118, Final residual = 3.12423e-05, No Iterations 6
smoothSolver:  Solving for k, Initial residual = 0.0322343, Final residual = 0.000266335, No Iterations 9
ExecutionTime = 416.15 s  ClockTime = 416 s

Time = 107

smoothSolver:  Solving for Ux, Initial residual = 0.00101464, Final residual = 8.55409e-06, No Iterations 11
smoothSolver:  Solving for Uy, Initial residual = 0.0015435, Final residual = 1.23648e-05, No Iterations 11
GAMG:  Solving for p, Initial residual = 0.000827656, Final residual = 1.91861e-05, No Iterations 1000
time step continuity errors : sum local = 1.93283e-06, global = 2.8126e-07, cumulative = 0.0183674
smoothSolver:  Solving for epsilon, Initial residual = 0.00328266, Final residual = 2.75953e-05, No Iterations 6
smoothSolver:  Solving for k, Initial residual = 0.0314737, Final residual = 0.000252613, No Iterations 9
ExecutionTime = 420.35 s  ClockTime = 420 s

Time = 108

smoothSolver:  Solving for Ux, Initial residual = 0.00103202, Final residual = 8.73264e-06, No Iterations 11
smoothSolver:  Solving for Uy, Initial residual = 0.00153444, Final residual = 1.22603e-05, No Iterations 11
GAMG:  Solving for p, Initial residual = 0.000805537, Final residual = 1.83953e-05, No Iterations 1000
time step continuity errors : sum local = 1.87636e-06, global = 2.75298e-07, cumulative = 0.0183677
smoothSolver:  Solving for epsilon, Initial residual = 0.00316364, Final residual = 2.58406e-05, No Iterations 6
smoothSolver:  Solving for k, Initial residual = 0.0308609, Final residual = 0.000243729, No Iterations 9
ExecutionTime = 424.53 s  ClockTime = 425 s

Time = 109

smoothSolver:  Solving for Ux, Initial residual = 0.00104895, Final residual = 8.90364e-06, No Iterations 11
smoothSolver:  Solving for Uy, Initial residual = 0.00153151, Final residual = 1.21559e-05, No Iterations 11
GAMG:  Solving for p, Initial residual = 0.000791149, Final residual = 1.75761e-05, No Iterations 1000
time step continuity errors : sum local = 1.82234e-06, global = 2.69144e-07, cumulative = 0.018368
smoothSolver:  Solving for epsilon, Initial residual = 0.00303976, Final residual = 2.29031e-05, No Iterations 6
smoothSolver:  Solving for k, Initial residual = 0.0300235, Final residual = 0.000224708, No Iterations 9
ExecutionTime = 428.71 s  ClockTime = 429 s

Time = 110

smoothSolver:  Solving for Ux, Initial residual = 0.00106631, Final residual = 9.07398e-06, No Iterations 11
smoothSolver:  Solving for Uy, Initial residual = 0.00152309, Final residual = 1.20606e-05, No Iterations 11
GAMG:  Solving for p, Initial residual = 0.000770132, Final residual = 1.65859e-05, No Iterations 1000
time step continuity errors : sum local = 1.73859e-06, global = 2.58313e-07, cumulative = 0.0183682
smoothSolver:  Solving for epsilon, Initial residual = 0.00292003, Final residual = 2.07538e-05, No Iterations 6
smoothSolver:  Solving for k, Initial residual = 0.0291786, Final residual = 0.000208999, No Iterations 9
ExecutionTime = 432.9 s  ClockTime = 433 s

Time = 111

smoothSolver:  Solving for Ux, Initial residual = 0.00108328, Final residual = 9.24075e-06, No Iterations 11
smoothSolver:  Solving for Uy, Initial residual = 0.00151512, Final residual = 1.19503e-05, No Iterations 11
GAMG:  Solving for p, Initial residual = 0.000743943, Final residual = 1.56769e-05, No Iterations 1000
[...]
time step continuity errors : sum local = 1.25576e-07, global = 1.97848e-08, cumulative = 0.0183732
smoothSolver:  Solving for epsilon, Initial residual = 1.04218e-06, Final residual = 1.51091e-07, No Iterations 1
smoothSolver:  Solving for k, Initial residual = 8.52871e-06, Final residual = 5.03663e-07, No Iterations 3
ExecutionTime = 1028.24 s  ClockTime = 1029 s

Time = 683

smoothSolver:  Solving for Ux, Initial residual = 5.09264e-06, Final residual = 9.08907e-07, No Iterations 4
smoothSolver:  Solving for Uy, Initial residual = 1.30146e-05, Final residual = 8.57707e-07, No Iterations 6
GAMG:  Solving for p, Initial residual = 1.66443e-06, Final residual = 9.78039e-07, No Iterations 2
time step continuity errors : sum local = 1.27324e-07, global = 1.36001e-08, cumulative = 0.0183733
smoothSolver:  Solving for epsilon, Initial residual = 1.02348e-06, Final residual = 1.43852e-07, No Iterations 1
smoothSolver:  Solving for k, Initial residual = 8.40445e-06, Final residual = 9.95997e-07, No Iterations 2
ExecutionTime = 1028.35 s  ClockTime = 1029 s

Time = 684

smoothSolver:  Solving for Ux, Initial residual = 5.02892e-06, Final residual = 9.02357e-07, No Iterations 4
smoothSolver:  Solving for Uy, Initial residual = 1.29861e-05, Final residual = 8.58045e-07, No Iterations 6
GAMG:  Solving for p, Initial residual = 1.82296e-06, Final residual = 9.89671e-07, No Iterations 6
time step continuity errors : sum local = 1.28644e-07, global = 1.52692e-08, cumulative = 0.0183733
smoothSolver:  Solving for epsilon, Initial residual = 8.97404e-07, Final residual = 8.97404e-07, No Iterations 0
smoothSolver:  Solving for k, Initial residual = 8.52676e-06, Final residual = 4.90079e-07, No Iterations 3
ExecutionTime = 1028.47 s  ClockTime = 1029 s

Time = 685

smoothSolver:  Solving for Ux, Initial residual = 4.90147e-06, Final residual = 8.91038e-07, No Iterations 4
smoothSolver:  Solving for Uy, Initial residual = 1.23077e-05, Final residual = 8.56013e-07, No Iterations 6
GAMG:  Solving for p, Initial residual = 1.92651e-06, Final residual = 9.92922e-07, No Iterations 5
time step continuity errors : sum local = 1.29254e-07, global = -2.11634e-08, cumulative = 0.0183732
smoothSolver:  Solving for epsilon, Initial residual = 1.06775e-06, Final residual = 1.55725e-07, No Iterations 1
smoothSolver:  Solving for k, Initial residual = 8.36794e-06, Final residual = 9.90368e-07, No Iterations 2
ExecutionTime = 1028.59 s  ClockTime = 1029 s

Time = 686

smoothSolver:  Solving for Ux, Initial residual = 4.9618e-06, Final residual = 8.84734e-07, No Iterations 4
smoothSolver:  Solving for Uy, Initial residual = 1.28148e-05, Final residual = 8.40742e-07, No Iterations 6
GAMG:  Solving for p, Initial residual = 1.74058e-06, Final residual = 9.46387e-07, No Iterations 5
time step continuity errors : sum local = 1.23003e-07, global = 1.90159e-08, cumulative = 0.0183733
smoothSolver:  Solving for epsilon, Initial residual = 1.06041e-06, Final residual = 1.48956e-07, No Iterations 1
smoothSolver:  Solving for k, Initial residual = 8.04831e-06, Final residual = 9.6385e-07, No Iterations 2
ExecutionTime = 1028.71 s  ClockTime = 1029 s

Time = 687

smoothSolver:  Solving for Ux, Initial residual = 4.89484e-06, Final residual = 8.78088e-07, No Iterations 4
smoothSolver:  Solving for Uy, Initial residual = 1.25773e-05, Final residual = 8.23855e-07, No Iterations 6
GAMG:  Solving for p, Initial residual = 1.69411e-06, Final residual = 9.60864e-07, No Iterations 2
time step continuity errors : sum local = 1.25087e-07, global = 1.33771e-08, cumulative = 0.0183733
smoothSolver:  Solving for epsilon, Initial residual = 9.37346e-07, Final residual = 9.37346e-07, No Iterations 0
smoothSolver:  Solving for k, Initial residual = 8.34171e-06, Final residual = 9.71008e-07, No Iterations 2
ExecutionTime = 1028.82 s  ClockTime = 1029 s

Time = 688

smoothSolver:  Solving for Ux, Initial residual = 4.77609e-06, Final residual = 8.67304e-07, No Iterations 4
smoothSolver:  Solving for Uy, Initial residual = 1.19371e-05, Final residual = 8.32939e-07, No Iterations 6
GAMG:  Solving for p, Initial residual = 1.95757e-06, Final residual = 9.70767e-07, No Iterations 6
time step continuity errors : sum local = 1.26176e-07, global = 1.44528e-08, cumulative = 0.0183733
smoothSolver:  Solving for epsilon, Initial residual = 1.10022e-06, Final residual = 1.61662e-07, No Iterations 1
smoothSolver:  Solving for k, Initial residual = 8.11194e-06, Final residual = 9.6443e-07, No Iterations 2
ExecutionTime = 1028.94 s  ClockTime = 1030 s

Time = 689

smoothSolver:  Solving for Ux, Initial residual = 4.84438e-06, Final residual = 8.61168e-07, No Iterations 4
smoothSolver:  Solving for Uy, Initial residual = 1.26017e-05, Final residual = 8.22102e-07, No Iterations 6
GAMG:  Solving for p, Initial residual = 1.73867e-06, Final residual = 9.67804e-07, No Iterations 4
time step continuity errors : sum local = 1.25962e-07, global = 1.40448e-08, cumulative = 0.0183733
smoothSolver:  Solving for epsilon, Initial residual = 1.11098e-06, Final residual = 1.56048e-07, No Iterations 1
smoothSolver:  Solving for k, Initial residual = 8.02879e-06, Final residual = 9.37614e-07, No Iterations 2
ExecutionTime = 1029.06 s  ClockTime = 1030 s

Time = 690

smoothSolver:  Solving for Ux, Initial residual = 4.77321e-06, Final residual = 8.54838e-07, No Iterations 4
smoothSolver:  Solving for Uy, Initial residual = 1.23757e-05, Final residual = 8.13672e-07, No Iterations 6
GAMG:  Solving for p, Initial residual = 1.66568e-06, Final residual = 9.81966e-07, No Iterations 4
time step continuity errors : sum local = 1.27631e-07, global = 1.46298e-08, cumulative = 0.0183733
smoothSolver:  Solving for epsilon, Initial residual = 9.55636e-07, Final residual = 9.55636e-07, No Iterations 0
smoothSolver:  Solving for k, Initial residual = 8.13519e-06, Final residual = 9.47778e-07, No Iterations 2
ExecutionTime = 1029.19 s  ClockTime = 1030 s

Time = 691

smoothSolver:  Solving for Ux, Initial residual = 4.65104e-06, Final residual = 8.44199e-07, No Iterations 4
smoothSolver:  Solving for Uy, Initial residual = 1.16486e-05, Final residual = 8.12815e-07, No Iterations 6
GAMG:  Solving for p, Initial residual = 1.8917e-06, Final residual = 9.76206e-07, No Iterations 6
time step continuity errors : sum local = 1.27051e-07, global = 1.49305e-08, cumulative = 0.0183733
smoothSolver:  Solving for epsilon, Initial residual = 1.13015e-06, Final residual = 1.63062e-07, No Iterations 1
smoothSolver:  Solving for k, Initial residual = 8.00517e-06, Final residual = 9.36334e-07, No Iterations 2
ExecutionTime = 1029.31 s  ClockTime = 1030 s

Time = 692

smoothSolver:  Solving for Ux, Initial residual = 4.71953e-06, Final residual = 8.38326e-07, No Iterations 4
smoothSolver:  Solving for Uy, Initial residual = 1.22379e-05, Final residual = 7.94472e-07, No Iterations 6
GAMG:  Solving for p, Initial residual = 1.80334e-06, Final residual = 9.74151e-07, No Iterations 4
time step continuity errors : sum local = 1.266e-07, global = 1.5195e-08, cumulative = 0.0183734
smoothSolver:  Solving for epsilon, Initial residual = 1.11322e-06, Final residual = 1.54235e-07, No Iterations 1
smoothSolver:  Solving for k, Initial residual = 7.75509e-06, Final residual = 9.13317e-07, No Iterations 2
ExecutionTime = 1029.44 s  ClockTime = 1030 s

Time = 693

smoothSolver:  Solving for Ux, Initial residual = 4.64575e-06, Final residual = 8.32154e-07, No Iterations 4
smoothSolver:  Solving for Uy, Initial residual = 1.20388e-05, Final residual = 7.88223e-07, No Iterations 6
GAMG:  Solving for p, Initial residual = 1.65008e-06, Final residual = 9.93533e-07, No Iterations 4
time step continuity errors : sum local = 1.29311e-07, global = 1.53757e-08, cumulative = 0.0183734
smoothSolver:  Solving for epsilon, Initial residual = 9.47126e-07, Final residual = 9.47126e-07, No Iterations 0
smoothSolver:  Solving for k, Initial residual = 8.03018e-06, Final residual = 9.23655e-07, No Iterations 2
ExecutionTime = 1029.55 s  ClockTime = 1030 s

Time = 694

smoothSolver:  Solving for Ux, Initial residual = 4.5298e-06, Final residual = 8.21805e-07, No Iterations 4
smoothSolver:  Solving for Uy, Initial residual = 1.13128e-05, Final residual = 7.89232e-07, No Iterations 6
GAMG:  Solving for p, Initial residual = 1.86211e-06, Final residual = 9.70993e-07, No Iterations 8
time step continuity errors : sum local = 1.2619e-07, global = 1.51906e-08, cumulative = 0.0183734
smoothSolver:  Solving for epsilon, Initial residual = 1.11243e-06, Final residual = 1.58559e-07, No Iterations 1
smoothSolver:  Solving for k, Initial residual = 7.79957e-06, Final residual = 9.17878e-07, No Iterations 2
ExecutionTime = 1029.69 s  ClockTime = 1030 s

Time = 695

smoothSolver:  Solving for Ux, Initial residual = 4.60028e-06, Final residual = 8.16025e-07, No Iterations 4
smoothSolver:  Solving for Uy, Initial residual = 1.19499e-05, Final residual = 7.71034e-07, No Iterations 6
GAMG:  Solving for p, Initial residual = 1.78876e-06, Final residual = 9.71019e-07, No Iterations 4
time step continuity errors : sum local = 1.26359e-07, global = 1.508e-08, cumulative = 0.0183734
smoothSolver:  Solving for epsilon, Initial residual = 1.09285e-06, Final residual = 1.51767e-07, No Iterations 1
smoothSolver:  Solving for k, Initial residual = 7.72933e-06, Final residual = 8.92479e-07, No Iterations 2
ExecutionTime = 1029.81 s  ClockTime = 1030 s

Time = 696

smoothSolver:  Solving for Ux, Initial residual = 4.52891e-06, Final residual = 8.1004e-07, No Iterations 4
smoothSolver:  Solving for Uy, Initial residual = 1.17133e-05, Final residual = 7.66679e-07, No Iterations 6
GAMG:  Solving for p, Initial residual = 1.61027e-06, Final residual = 9.83468e-07, No Iterations 4
time step continuity errors : sum local = 1.27811e-07, global = 1.53469e-08, cumulative = 0.0183734
smoothSolver:  Solving for epsilon, Initial residual = 9.58426e-07, Final residual = 9.58426e-07, No Iterations 0
smoothSolver:  Solving for k, Initial residual = 7.80928e-06, Final residual = 9.04255e-07, No Iterations 2
ExecutionTime = 1029.91 s  ClockTime = 1031 s

Time = 697

smoothSolver:  Solving for Ux, Initial residual = 4.40822e-06, Final residual = 7.99875e-07, No Iterations 4
smoothSolver:  Solving for Uy, Initial residual = 1.10253e-05, Final residual = 7.70254e-07, No Iterations 6
GAMG:  Solving for p, Initial residual = 1.81099e-06, Final residual = 9.82395e-07, No Iterations 6
time step continuity errors : sum local = 1.27837e-07, global = 1.48613e-08, cumulative = 0.0183734
smoothSolver:  Solving for epsilon, Initial residual = 1.11921e-06, Final residual = 1.59728e-07, No Iterations 1
smoothSolver:  Solving for k, Initial residual = 7.70184e-06, Final residual = 8.95181e-07, No Iterations 2
ExecutionTime = 1030.01 s  ClockTime = 1031 s

Time = 698

smoothSolver:  Solving for Ux, Initial residual = 4.48218e-06, Final residual = 7.94394e-07, No Iterations 4
smoothSolver:  Solving for Uy, Initial residual = 1.17215e-05, Final residual = 7.55822e-07, No Iterations 6
GAMG:  Solving for p, Initial residual = 1.81455e-06, Final residual = 9.7983e-07, No Iterations 4
time step continuity errors : sum local = 1.27324e-07, global = 1.52184e-08, cumulative = 0.0183734
smoothSolver:  Solving for epsilon, Initial residual = 1.11018e-06, Final residual = 1.56758e-07, No Iterations 1
smoothSolver:  Solving for k, Initial residual = 7.46912e-06, Final residual = 8.73482e-07, No Iterations 2
ExecutionTime = 1030.13 s  ClockTime = 1031 s

Time = 699

smoothSolver:  Solving for Ux, Initial residual = 4.41196e-06, Final residual = 7.88484e-07, No Iterations 4
smoothSolver:  Solving for Uy, Initial residual = 1.14824e-05, Final residual = 7.49611e-07, No Iterations 6
GAMG:  Solving for p, Initial residual = 1.59299e-06, Final residual = 9.82054e-07, No Iterations 4
time step continuity errors : sum local = 1.27798e-07, global = 1.51002e-08, cumulative = 0.0183735
smoothSolver:  Solving for epsilon, Initial residual = 9.97892e-07, Final residual = 9.97892e-07, No Iterations 0
smoothSolver:  Solving for k, Initial residual = 7.76578e-06, Final residual = 8.85792e-07, No Iterations 2
ExecutionTime = 1030.24 s  ClockTime = 1031 s

Time = 700

smoothSolver:  Solving for Ux, Initial residual = 4.29877e-06, Final residual = 7.78649e-07, No Iterations 4
smoothSolver:  Solving for Uy, Initial residual = 1.07381e-05, Final residual = 7.48603e-07, No Iterations 6
GAMG:  Solving for p, Initial residual = 1.80354e-06, Final residual = 9.86373e-07, No Iterations 6
time step continuity errors : sum local = 1.28173e-07, global = 1.48361e-08, cumulative = 0.0183735
smoothSolver:  Solving for epsilon, Initial residual = 1.179e-06, Final residual = 1.62888e-07, No Iterations 1
smoothSolver:  Solving for k, Initial residual = 7.52643e-06, Final residual = 8.80523e-07, No Iterations 2
ExecutionTime = 1030.32 s  ClockTime = 1031 s

Time = 701

smoothSolver:  Solving for Ux, Initial residual = 4.3736e-06, Final residual = 7.73245e-07, No Iterations 4
smoothSolver:  Solving for Uy, Initial residual = 1.14333e-05, Final residual = 7.33284e-07, No Iterations 6
GAMG:  Solving for p, Initial residual = 1.80425e-06, Final residual = 9.77255e-07, No Iterations 4
time step continuity errors : sum local = 1.27154e-07, global = 1.4916e-08, cumulative = 0.0183735
smoothSolver:  Solving for epsilon, Initial residual = 1.12643e-06, Final residual = 1.58376e-07, No Iterations 1
smoothSolver:  Solving for k, Initial residual = 7.47787e-06, Final residual = 8.57842e-07, No Iterations 2
ExecutionTime = 1030.42 s  ClockTime = 1031 s

Time = 702

smoothSolver:  Solving for Ux, Initial residual = 4.29958e-06, Final residual = 7.67494e-07, No Iterations 4
smoothSolver:  Solving for Uy, Initial residual = 1.11564e-05, Final residual = 7.26762e-07, No Iterations 6
GAMG:  Solving for p, Initial residual = 1.56938e-06, Final residual = 9.7809e-07, No Iterations 4
time step continuity errors : sum local = 1.27096e-07, global = 1.51096e-08, cumulative = 0.0183735
smoothSolver:  Solving for epsilon, Initial residual = 9.90216e-07, Final residual = 9.90216e-07, No Iterations 0
smoothSolver:  Solving for k, Initial residual = 7.56322e-06, Final residual = 8.69248e-07, No Iterations 2
ExecutionTime = 1030.5 s  ClockTime = 1031 s

Time = 703

smoothSolver:  Solving for Ux, Initial residual = 4.18152e-06, Final residual = 7.57868e-07, No Iterations 4
smoothSolver:  Solving for Uy, Initial residual = 1.0442e-05, Final residual = 7.27923e-07, No Iterations 6
GAMG:  Solving for p, Initial residual = 1.79514e-06, Final residual = 9.78875e-07, No Iterations 6
time step continuity errors : sum local = 1.27363e-07, global = 1.45791e-08, cumulative = 0.0183735
smoothSolver:  Solving for epsilon, Initial residual = 1.16397e-06, Final residual = 1.61813e-07, No Iterations 1
smoothSolver:  Solving for k, Initial residual = 7.43865e-06, Final residual = 8.60234e-07, No Iterations 2
ExecutionTime = 1030.6 s  ClockTime = 1031 s

Time = 704

smoothSolver:  Solving for Ux, Initial residual = 4.25721e-06, Final residual = 7.52628e-07, No Iterations 4
smoothSolver:  Solving for Uy, Initial residual = 1.11617e-05, Final residual = 7.13352e-07, No Iterations 6
GAMG:  Solving for p, Initial residual = 1.81482e-06, Final residual = 9.73859e-07, No Iterations 4
time step continuity errors : sum local = 1.26533e-07, global = 1.48996e-08, cumulative = 0.0183735
smoothSolver:  Solving for epsilon, Initial residual = 1.12021e-06, Final residual = 1.58037e-07, No Iterations 1
smoothSolver:  Solving for k, Initial residual = 7.23543e-06, Final residual = 8.4152e-07, No Iterations 2
ExecutionTime = 1030.68 s  ClockTime = 1031 s

Time = 705

smoothSolver:  Solving for Ux, Initial residual = 4.18592e-06, Final residual = 7.46984e-07, No Iterations 4
smoothSolver:  Solving for Uy, Initial residual = 1.09163e-05, Final residual = 7.08001e-07, No Iterations 6
GAMG:  Solving for p, Initial residual = 1.5527e-06, Final residual = 9.67116e-07, No Iterations 4
time step continuity errors : sum local = 1.25838e-07, global = 1.46838e-08, cumulative = 0.0183735
smoothSolver:  Solving for epsilon, Initial residual = 9.96148e-07, Final residual = 9.96148e-07, No Iterations 0
smoothSolver:  Solving for k, Initial residual = 7.51217e-06, Final residual = 8.51886e-07, No Iterations 2
ExecutionTime = 1030.78 s  ClockTime = 1031 s

Time = 706

smoothSolver:  Solving for Ux, Initial residual = 4.07424e-06, Final residual = 7.37619e-07, No Iterations 4
smoothSolver:  Solving for Uy, Initial residual = 1.01768e-05, Final residual = 7.08074e-07, No Iterations 6
GAMG:  Solving for p, Initial residual = 1.7657e-06, Final residual = 9.98257e-07, No Iterations 4
time step continuity errors : sum local = 1.29702e-07, global = 1.49086e-08, cumulative = 0.0183736
smoothSolver:  Solving for epsilon, Initial residual = 1.16598e-06, Final residual = 1.60915e-07, No Iterations 1
smoothSolver:  Solving for k, Initial residual = 7.27934e-06, Final residual = 8.47521e-07, No Iterations 2
ExecutionTime = 1030.86 s  ClockTime = 1031 s

Time = 707

smoothSolver:  Solving for Ux, Initial residual = 4.15316e-06, Final residual = 7.32526e-07, No Iterations 4
smoothSolver:  Solving for Uy, Initial residual = 1.09746e-05, Final residual = 6.9927e-07, No Iterations 6
GAMG:  Solving for p, Initial residual = 1.80525e-06, Final residual = 9.93808e-07, No Iterations 4
time step continuity errors : sum local = 1.29293e-07, global = 1.49329e-08, cumulative = 0.0183736
smoothSolver:  Solving for epsilon, Initial residual = 1.13047e-06, Final residual = 1.58798e-07, No Iterations 1
smoothSolver:  Solving for k, Initial residual = 7.25126e-06, Final residual = 8.27046e-07, No Iterations 2
ExecutionTime = 1030.95 s  ClockTime = 1032 s

Time = 708

smoothSolver:  Solving for Ux, Initial residual = 4.08184e-06, Final residual = 7.27047e-07, No Iterations 4
smoothSolver:  Solving for Uy, Initial residual = 1.06615e-05, Final residual = 6.89929e-07, No Iterations 6
GAMG:  Solving for p, Initial residual = 1.55312e-06, Final residual = 9.95255e-07, No Iterations 4
time step continuity errors : sum local = 1.29311e-07, global = 1.51424e-08, cumulative = 0.0183736
smoothSolver:  Solving for epsilon, Initial residual = 1.00691e-06, Final residual = 1.32176e-07, No Iterations 1
smoothSolver:  Solving for k, Initial residual = 6.90185e-06, Final residual = 8.05402e-07, No Iterations 2
ExecutionTime = 1031.04 s  ClockTime = 1032 s

Time = 709

smoothSolver:  Solving for Ux, Initial residual = 4.04517e-06, Final residual = 7.21615e-07, No Iterations 4
smoothSolver:  Solving for Uy, Initial residual = 1.06502e-05, Final residual = 6.82997e-07, No Iterations 6
GAMG:  Solving for p, Initial residual = 1.76151e-06, Final residual = 9.84411e-07, No Iterations 6
time step continuity errors : sum local = 1.28078e-07, global = 1.49631e-08, cumulative = 0.0183736
smoothSolver:  Solving for epsilon, Initial residual = 8.54735e-07, Final residual = 8.54735e-07, No Iterations 0
smoothSolver:  Solving for k, Initial residual = 7.30373e-06, Final residual = 8.13442e-07, No Iterations 2
ExecutionTime = 1031.14 s  ClockTime = 1032 s

Time = 710

smoothSolver:  Solving for Ux, Initial residual = 3.92742e-06, Final residual = 7.12683e-07, No Iterations 4
smoothSolver:  Solving for Uy, Initial residual = 9.91872e-06, Final residual = 6.76885e-07, No Iterations 6
GAMG:  Solving for p, Initial residual = 1.88851e-06, Final residual = 9.98653e-07, No Iterations 4
time step continuity errors : sum local = 1.29743e-07, global = 1.49917e-08, cumulative = 0.0183736
smoothSolver:  Solving for epsilon, Initial residual = 1.02144e-06, Final residual = 1.41796e-07, No Iterations 1
smoothSolver:  Solving for k, Initial residual = 6.94214e-06, Final residual = 8.07715e-07, No Iterations 2
ExecutionTime = 1031.23 s  ClockTime = 1032 s


SIMPLE solution converged in 710 iterations

End

