/*---------------------------------------------------------------------------*\
| =========                 |                                                 |
| \\      /  F ield         | OpenFOAM: The Open Source CFD Toolbox           |
|  \\    /   O peration     | Version:  2412                                  |
|   \\  /    A nd           | Website:  www.openfoam.com                      |
|    \\/     M anipulation  |                                                 |
\*---------------------------------------------------------------------------*/
Build  : _8dbc61e11c-20241220 OPENFOAM=2412 version=v2412
Arch   : "LSB;label=32;scalar=64"
Exec   : simpleFoam
Date   : May 30 2025
Time   : 18:44:01
Host   : am409
PID    : 1579725
I/O    : uncollated
Case   : /home/roko/examinationAssignmentFiles_part1/Diffuser/kEpsilonPhitF
nProcs : 1
trapFpe: Floating point exception trapping enabled (FOAM_SIGFPE).
fileModificationChecking : Monitoring run-time modified files using timeStampMaster (fileModificationSkew 5, maxFileModificationPolls 20)
allowSystemOperations : Allowing user-supplied system call operations

// * * * * * * * * * * * * * * * * * * * * * * * * * * * * * * * * * * * * * //
Create time

Create mesh for time = 0


SIMPLE: convergence criteria
    field p	 tolerance 1e-05
    field U	 tolerance 1e-05
    field "(k|epsilon|omega|f|v2|nuTilda|phit)"	 tolerance 1e-05

Reading field p

Reading field U

Reading/calculating face flux field phi

Selecting incompressible transport model Newtonian
Selecting turbulence model type RAS
Selecting RAS turbulence model kEpsilonPhitF
bounding phit, min: 0 max: 0.66 average: 0.66
bounding f, min: 0 max: 1 average: 1
RAS
{
    RASModel        kEpsilonPhitF;
    turbulence      on;
    printCoeffs     on;
    includeNu       true;
    Cmu             0.22;
    Ceps1a          1.4;
    Ceps1b          1;
    Ceps1c          0.05;
    Ceps2           1.9;
    Cf1             1.4;
    Cf2             0.3;
    CL              0.25;
    Ceta            110;
    CT              6;
    sigmaK          1;
    sigmaEps        1.3;
    sigmaPhit       1;
}

No MRF models present

No finite volume options present

Starting time loop

wallShearStress wallShearStress:
    processing (2) wall patches:
        lowerWall
        upperWall

turbulenceFields turbulenceFields1: storing fields:
    turbulenceProperties:R

Sampled surface:
    lowerWall -> raw
        sampledPatch: lowerWall : patches:(lowerWall)
    upperWall -> raw
        sampledPatch: upperWall : patches:(upperWall)

Sampled surface:
    interface -> raw
        isoSurface: interface : isoMethod:cell regularise:full snap:1 field:Ux value:(0)

Sampled set:
    line -> raw

Sampled set:
    line -> raw

Sampled set:
    line -> raw

Sampled set:
    line -> raw

Sampled set:
    line -> raw

Sampled set:
    line -> raw

Sampled set:
    line -> raw

Sampled set:
    line -> raw

Sampled set:
    line -> raw

Sampled set:
    line -> raw

Sampled set:
    line -> raw

Sampled set:
    line -> raw

Sampled set:
    line -> raw

Sampled set:
    line -> raw

Sampled set:
    line -> raw

Sampled set:
    line -> raw

Sampled set:
    line -> raw

Sampled set:
    line -> raw

Sampled set:
    line -> raw

Sampled set:
    line -> raw

Sampled set:
    line -> raw

Sampled set:
    line -> raw

Sampled set:
    line -> raw

Sampled set:
    line -> raw

Time = 1

smoothSolver:  Solving for Ux, Initial residual = 1, Final residual = 0.00579523, No Iterations 3
smoothSolver:  Solving for Uy, Initial residual = 0.999982, Final residual = 0.00617803, No Iterations 3
GAMG:  Solving for p, Initial residual = 1, Final residual = 0.0413486, No Iterations 1000
time step continuity errors : sum local = 0.000169971, global = -7.20663e-05, cumulative = -7.20663e-05
smoothSolver:  Solving for epsilon, Initial residual = 0.909358, Final residual = 0.00106641, No Iterations 2
smoothSolver:  Solving for k, Initial residual = 1, Final residual = 0.00445519, No Iterations 2
smoothSolver:  Solving for f, Initial residual = 1, Final residual = 0.00936613, No Iterations 5
bounding f, min: 0 max: 0.941975 average: 0.503491
smoothSolver:  Solving for phit, Initial residual = 1, Final residual = 0.00991568, No Iterations 6
bounding phit, min: 0 max: 12.7644 average: 1.77778
ExecutionTime = 15.41 s  ClockTime = 15 s

Time = 2

smoothSolver:  Solving for Ux, Initial residual = 0.0424682, Final residual = 0.000292267, No Iterations 7
smoothSolver:  Solving for Uy, Initial residual = 0.286362, Final residual = 0.00154369, No Iterations 4
GAMG:  Solving for p, Initial residual = 0.0470425, Final residual = 0.000758572, No Iterations 1000
time step continuity errors : sum local = 0.000477748, global = 0.000121296, cumulative = 4.92298e-05
smoothSolver:  Solving for epsilon, Initial residual = 0.321503, Final residual = 0.00164086, No Iterations 3
smoothSolver:  Solving for k, Initial residual = 0.356038, Final residual = 0.00321356, No Iterations 4
smoothSolver:  Solving for f, Initial residual = 0.265667, Final residual = 0.00201471, No Iterations 8
bounding f, min: -4.40805 max: 1.03702 average: 0.192404
smoothSolver:  Solving for phit, Initial residual = 0.165071, Final residual = 0.000887203, No Iterations 5
bounding phit, min: 0 max: 9.15936 average: 1.31298
ExecutionTime = 19.68 s  ClockTime = 19 s

Time = 3

smoothSolver:  Solving for Ux, Initial residual = 0.0297248, Final residual = 0.000225256, No Iterations 7
smoothSolver:  Solving for Uy, Initial residual = 0.268264, Final residual = 0.00207394, No Iterations 3
GAMG:  Solving for p, Initial residual = 0.122, Final residual = 0.00121887, No Iterations 978
time step continuity errors : sum local = 0.000274898, global = 7.94385e-05, cumulative = 0.000128668
smoothSolver:  Solving for epsilon, Initial residual = 0.135547, Final residual = 0.000718074, No Iterations 4
smoothSolver:  Solving for k, Initial residual = 0.244468, Final residual = 0.00232253, No Iterations 4
smoothSolver:  Solving for f, Initial residual = 0.0979563, Final residual = 0.000836164, No Iterations 9
bounding f, min: -0.422467 max: 1.36666 average: 0.322596
smoothSolver:  Solving for phit, Initial residual = 0.0805109, Final residual = 0.000470358, No Iterations 6
bounding phit, min: 0 max: 5.86405 average: 0.915044
ExecutionTime = 23.8 s  ClockTime = 24 s

Time = 4

smoothSolver:  Solving for Ux, Initial residual = 0.0283333, Final residual = 0.000268269, No Iterations 7
smoothSolver:  Solving for Uy, Initial residual = 0.0832733, Final residual = 0.000636931, No Iterations 5
GAMG:  Solving for p, Initial residual = 0.0233979, Final residual = 0.00023348, No Iterations 654
time step continuity errors : sum local = 0.000156267, global = 3.07671e-05, cumulative = 0.000159435
smoothSolver:  Solving for epsilon, Initial residual = 0.119492, Final residual = 0.000627584, No Iterations 3
smoothSolver:  Solving for k, Initial residual = 0.33935, Final residual = 0.00254988, No Iterations 4
smoothSolver:  Solving for f, Initial residual = 0.0636297, Final residual = 0.000410311, No Iterations 10
bounding f, min: -0.0479917 max: 1.49327 average: 0.342946
smoothSolver:  Solving for phit, Initial residual = 0.0914927, Final residual = 0.000582182, No Iterations 6
bounding phit, min: 0 max: 3.84142 average: 0.693234
ExecutionTime = 26.56 s  ClockTime = 26 s

Time = 5

smoothSolver:  Solving for Ux, Initial residual = 0.0356338, Final residual = 0.000332426, No Iterations 8
smoothSolver:  Solving for Uy, Initial residual = 0.0856722, Final residual = 0.000561461, No Iterations 5
GAMG:  Solving for p, Initial residual = 0.0179115, Final residual = 0.000348118, No Iterations 1000
time step continuity errors : sum local = 0.000270059, global = 9.29876e-05, cumulative = 0.000252423
smoothSolver:  Solving for epsilon, Initial residual = 0.140551, Final residual = 0.000704522, No Iterations 4
smoothSolver:  Solving for k, Initial residual = 0.372619, Final residual = 0.00216775, No Iterations 6
smoothSolver:  Solving for f, Initial residual = 0.0478625, Final residual = 0.000328793, No Iterations 10
bounding f, min: -0.064073 max: 1.47818 average: 0.347662
smoothSolver:  Solving for phit, Initial residual = 0.122711, Final residual = 0.000867631, No Iterations 6
bounding phit, min: 0 max: 2.38945 average: 0.557674
ExecutionTime = 30.85 s  ClockTime = 31 s

Time = 6

smoothSolver:  Solving for Ux, Initial residual = 0.0469357, Final residual = 0.000406542, No Iterations 9
smoothSolver:  Solving for Uy, Initial residual = 0.0936801, Final residual = 0.000881862, No Iterations 5
GAMG:  Solving for p, Initial residual = 0.0423917, Final residual = 0.00173769, No Iterations 1000
time step continuity errors : sum local = 0.000556596, global = 0.000206253, cumulative = 0.000458676
smoothSolver:  Solving for epsilon, Initial residual = 0.20393, Final residual = 0.00115963, No Iterations 6
smoothSolver:  Solving for k, Initial residual = 0.303459, Final residual = 0.00203174, No Iterations 8
smoothSolver:  Solving for f, Initial residual = 0.0439037, Final residual = 0.000418802, No Iterations 9
bounding f, min: -0.0754377 max: 1.51121 average: 0.351563
smoothSolver:  Solving for phit, Initial residual = 0.127063, Final residual = 0.00125472, No Iterations 6
bounding phit, min: 0 max: 1.79332 average: 0.472493
ExecutionTime = 35.1 s  ClockTime = 35 s

Time = 7

smoothSolver:  Solving for Ux, Initial residual = 0.0522703, Final residual = 0.000376294, No Iterations 10
smoothSolver:  Solving for Uy, Initial residual = 0.0934402, Final residual = 0.000905957, No Iterations 5
GAMG:  Solving for p, Initial residual = 0.0147871, Final residual = 0.000681771, No Iterations 1000
time step continuity errors : sum local = 0.00059135, global = 0.000208484, cumulative = 0.000667159
smoothSolver:  Solving for epsilon, Initial residual = 0.164842, Final residual = 0.00100356, No Iterations 7
smoothSolver:  Solving for k, Initial residual = 0.189347, Final residual = 0.00115517, No Iterations 9
bounding k, min: -6.72313e-05 max: 0.299853 average: 0.0181654
smoothSolver:  Solving for f, Initial residual = 0.0360708, Final residual = 0.000335406, No Iterations 9
bounding f, min: -0.0818989 max: 1.5986 average: 0.353752
smoothSolver:  Solving for phit, Initial residual = 0.118189, Final residual = 0.000834718, No Iterations 7
bounding phit, min: 0 max: 1.6586 average: 0.420484
ExecutionTime = 39.32 s  ClockTime = 39 s

Time = 8

smoothSolver:  Solving for Ux, Initial residual = 0.0529625, Final residual = 0.000454684, No Iterations 10
smoothSolver:  Solving for Uy, Initial residual = 0.0963775, Final residual = 0.000622627, No Iterations 6
GAMG:  Solving for p, Initial residual = 0.00630138, Final residual = 0.000156226, No Iterations 1000
time step continuity errors : sum local = 0.000326143, global = 0.000111897, cumulative = 0.000779057
smoothSolver:  Solving for epsilon, Initial residual = 0.103212, Final residual = 0.000780612, No Iterations 7
bounding epsilon, min: -0.000128376 max: 18.3209 average: 0.0437861
smoothSolver:  Solving for k, Initial residual = 0.111679, Final residual = 0.000797918, No Iterations 9
bounding k, min: -0.000577291 max: 0.32067 average: 0.0232027
smoothSolver:  Solving for f, Initial residual = 0.0276302, Final residual = 0.00025481, No Iterations 9
bounding f, min: -0.0871003 max: 1.62394 average: 0.352434
smoothSolver:  Solving for phit, Initial residual = 0.115968, Final residual = 0.000853308, No Iterations 7
bounding phit, min: 0 max: 1.68249 average: 0.391018
ExecutionTime = 43.58 s  ClockTime = 43 s

Time = 9

smoothSolver:  Solving for Ux, Initial residual = 0.0492292, Final residual = 0.000473659, No Iterations 10
smoothSolver:  Solving for Uy, Initial residual = 0.101088, Final residual = 0.000754538, No Iterations 6
GAMG:  Solving for p, Initial residual = 0.00542082, Final residual = 5.40361e-05, No Iterations 480
time step continuity errors : sum local = 0.000143215, global = 3.43831e-05, cumulative = 0.00081344
smoothSolver:  Solving for epsilon, Initial residual = 0.0814041, Final residual = 0.000588323, No Iterations 7
bounding epsilon, min: -0.000115273 max: 22.0723 average: 0.0571666
smoothSolver:  Solving for k, Initial residual = 0.0788014, Final residual = 0.0006121, No Iterations 9
bounding k, min: -0.000159589 max: 0.318526 average: 0.027675
smoothSolver:  Solving for f, Initial residual = 0.0255217, Final residual = 0.000180324, No Iterations 9
bounding f, min: -0.0912793 max: 1.64541 average: 0.348007
smoothSolver:  Solving for phit, Initial residual = 0.109186, Final residual = 0.000836506, No Iterations 7
bounding phit, min: 0 max: 1.62636 average: 0.37223
ExecutionTime = 45.68 s  ClockTime = 45 s

Time = 10

smoothSolver:  Solving for Ux, Initial residual = 0.0448838, Final residual = 0.000439576, No Iterations 10
smoothSolver:  Solving for Uy, Initial residual = 0.107714, Final residual = 0.000887838, No Iterations 6
GAMG:  Solving for p, Initial residual = 0.00681148, Final residual = 6.7777e-05, No Iterations 476
time step continuity errors : sum local = 0.000163197, global = 2.90633e-05, cumulative = 0.000842503
smoothSolver:  Solving for epsilon, Initial residual = 0.0629637, Final residual = 0.000444142, No Iterations 7
bounding epsilon, min: -0.00101083 max: 21.5801 average: 0.0735478
smoothSolver:  Solving for k, Initial residual = 0.0639548, Final residual = 0.000509925, No Iterations 9
bounding k, min: -0.00206033 max: 0.313117 average: 0.0317756
smoothSolver:  Solving for f, Initial residual = 0.0301221, Final residual = 0.000281268, No Iterations 7
bounding f, min: -0.0945553 max: 1.751 average: 0.342739
smoothSolver:  Solving for phit, Initial residual = 0.0987152, Final residual = 0.000717588, No Iterations 7
bounding phit, min: 0 max: 1.34952 average: 0.358649
ExecutionTime = 47.78 s  ClockTime = 48 s

Time = 11

smoothSolver:  Solving for Ux, Initial residual = 0.042036, Final residual = 0.000402831, No Iterations 10
smoothSolver:  Solving for Uy, Initial residual = 0.115197, Final residual = 0.00102025, No Iterations 6
GAMG:  Solving for p, Initial residual = 0.00874821, Final residual = 8.72739e-05, No Iterations 528
time step continuity errors : sum local = 0.000187348, global = 3.22734e-05, cumulative = 0.000874776
smoothSolver:  Solving for epsilon, Initial residual = 0.0420495, Final residual = 0.000373811, No Iterations 7
bounding epsilon, min: -0.00589345 max: 18.9464 average: 0.0858904
smoothSolver:  Solving for k, Initial residual = 0.0548514, Final residual = 0.000434241, No Iterations 9
bounding k, min: -0.00115275 max: 0.306716 average: 0.0357294
smoothSolver:  Solving for f, Initial residual = 0.0345389, Final residual = 0.000235152, No Iterations 7
bounding f, min: -0.0974366 max: 2.04048 average: 0.33776
smoothSolver:  Solving for phit, Initial residual = 0.0885071, Final residual = 0.00054131, No Iterations 7
bounding phit, min: 0 max: 1.39908 average: 0.348231
ExecutionTime = 50.12 s  ClockTime = 50 s

Time = 12

smoothSolver:  Solving for Ux, Initial residual = 0.0400942, Final residual = 0.000367208, No Iterations 10
smoothSolver:  Solving for Uy, Initial residual = 0.13015, Final residual = 0.00120984, No Iterations 6
GAMG:  Solving for p, Initial residual = 0.0117506, Final residual = 0.000117099, No Iterations 338
time step continuity errors : sum local = 0.000220645, global = 3.62922e-05, cumulative = 0.000911069
smoothSolver:  Solving for epsilon, Initial residual = 0.0386879, Final residual = 0.000361608, No Iterations 7
bounding epsilon, min: -0.00123531 max: 17.4892 average: 0.093322
smoothSolver:  Solving for k, Initial residual = 0.0499103, Final residual = 0.000393176, No Iterations 9
bounding k, min: -0.00397731 max: 0.347098 average: 0.0394518
smoothSolver:  Solving for f, Initial residual = 0.0288047, Final residual = 0.000232964, No Iterations 7
bounding f, min: -0.100388 max: 2.42092 average: 0.333412
smoothSolver:  Solving for phit, Initial residual = 0.0833456, Final residual = 0.000826706, No Iterations 6
bounding phit, min: 0 max: 1.43104 average: 0.340226
ExecutionTime = 51.65 s  ClockTime = 51 s

Time = 13

smoothSolver:  Solving for Ux, Initial residual = 0.0372369, Final residual = 0.000340463, No Iterations 10
smoothSolver:  Solving for Uy, Initial residual = 0.126049, Final residual = 0.00081385, No Iterations 7
GAMG:  Solving for p, Initial residual = 0.0135941, Final residual = 0.000135581, No Iterations 282
time step continuity errors : sum local = 0.000234363, global = 3.65939e-05, cumulative = 0.000947662
smoothSolver:  Solving for epsilon, Initial residual = 0.0343297, Final residual = 0.000207159, No Iterations 8
bounding epsilon, min: -0.0149297 max: 18.0114 average: 0.10002
smoothSolver:  Solving for k, Initial residual = 0.0447115, Final residual = 0.000342306, No Iterations 9
bounding k, min: -0.00139029 max: 0.394345 average: 0.042963
smoothSolver:  Solving for f, Initial residual = 0.022942, Final residual = 0.00021735, No Iterations 7
bounding f, min: -0.103337 max: 3.62531 average: 0.329292
smoothSolver:  Solving for phit, Initial residual = 0.077918, Final residual = 0.000738506, No Iterations 6
bounding phit, min: 0 max: 1.44957 average: 0.334344
ExecutionTime = 52.96 s  ClockTime = 53 s

Time = 14

smoothSolver:  Solving for Ux, Initial residual = 0.0357971, Final residual = 0.000316678, No Iterations 10
smoothSolver:  Solving for Uy, Initial residual = 0.117445, Final residual = 0.000947689, No Iterations 7
GAMG:  Solving for p, Initial residual = 0.0156316, Final residual = 0.000156132, No Iterations 206
time step continuity errors : sum local = 0.000250567, global = 3.69467e-05, cumulative = 0.000984609
smoothSolver:  Solving for epsilon, Initial residual = 0.0352551, Final residual = 0.000343355, No Iterations 7
bounding epsilon, min: -0.0151908 max: 19.1217 average: 0.109341
smoothSolver:  Solving for k, Initial residual = 0.0410946, Final residual = 0.000314662, No Iterations 9
bounding k, min: -0.00190044 max: 0.404485 average: 0.0461798
smoothSolver:  Solving for f, Initial residual = 0.0219601, Final residual = 0.00013939, No Iterations 8
bounding f, min: -0.10634 max: 2.17102 average: 0.323848
smoothSolver:  Solving for phit, Initial residual = 0.0710137, Final residual = 0.000692282, No Iterations 6
bounding phit, min: 0 max: 1.45677 average: 0.329598
ExecutionTime = 53.98 s  ClockTime = 54 s

Time = 15

smoothSolver:  Solving for Ux, Initial residual = 0.0342289, Final residual = 0.000297331, No Iterations 10
smoothSolver:  Solving for Uy, Initial residual = 0.117942, Final residual = 0.00109869, No Iterations 7
GAMG:  Solving for p, Initial residual = 0.0177181, Final residual = 0.000176031, No Iterations 198
time step continuity errors : sum local = 0.000267634, global = 3.6201e-05, cumulative = 0.00102081
smoothSolver:  Solving for epsilon, Initial residual = 0.0362295, Final residual = 0.000326374, No Iterations 7
bounding epsilon, min: -0.0132978 max: 19.4793 average: 0.12329
smoothSolver:  Solving for k, Initial residual = 0.0381748, Final residual = 0.000287411, No Iterations 9
bounding k, min: -0.00338789 max: 0.395751 average: 0.049082
smoothSolver:  Solving for f, Initial residual = 0.0297917, Final residual = 0.000184154, No Iterations 8
bounding f, min: -0.109089 max: 2.28449 average: 0.318813
smoothSolver:  Solving for phit, Initial residual = 0.0657244, Final residual = 0.000410495, No Iterations 7
bounding phit, min: 0 max: 1.44234 average: 0.325721
ExecutionTime = 54.96 s  ClockTime = 55 s

Time = 16

smoothSolver:  Solving for Ux, Initial residual = 0.0318941, Final residual = 0.000279598, No Iterations 10
smoothSolver:  Solving for Uy, Initial residual = 0.115408, Final residual = 0.000690856, No Iterations 8
GAMG:  Solving for p, Initial residual = 0.0188439, Final residual = 0.000186947, No Iterations 193
time step continuity errors : sum local = 0.000272271, global = 3.52094e-05, cumulative = 0.00105602
smoothSolver:  Solving for epsilon, Initial residual = 0.0326842, Final residual = 0.00028962, No Iterations 7
bounding epsilon, min: -0.000675794 max: 19.0425 average: 0.14055
smoothSolver:  Solving for k, Initial residual = 0.0345391, Final residual = 0.000260641, No Iterations 9
bounding k, min: -0.00374653 max: 0.391792 average: 0.0516727
smoothSolver:  Solving for f, Initial residual = 0.0455264, Final residual = 0.000442928, No Iterations 7
bounding f, min: -0.111466 max: 2.22066 average: 0.315099
smoothSolver:  Solving for phit, Initial residual = 0.0592593, Final residual = 0.000373217, No Iterations 7
bounding phit, min: 0 max: 1.43275 average: 0.322572
ExecutionTime = 55.92 s  ClockTime = 56 s

Time = 17

smoothSolver:  Solving for Ux, Initial residual = 0.0298994, Final residual = 0.000264696, No Iterations 10
smoothSolver:  Solving for Uy, Initial residual = 0.109645, Final residual = 0.000751334, No Iterations 8
GAMG:  Solving for p, Initial residual = 0.0201697, Final residual = 0.000199955, No Iterations 179
time step continuity errors : sum local = 0.000282373, global = 3.56356e-05, cumulative = 0.00109166
smoothSolver:  Solving for epsilon, Initial residual = 0.0249949, Final residual = 0.000238972, No Iterations 7
bounding epsilon, min: -0.00203013 max: 18.4747 average: 0.156179
smoothSolver:  Solving for k, Initial residual = 0.0311257, Final residual = 0.000232918, No Iterations 9
bounding k, min: -0.00785424 max: 0.385576 average: 0.0538584
smoothSolver:  Solving for f, Initial residual = 0.0598853, Final residual = 0.000597132, No Iterations 7
bounding f, min: -0.114027 max: 2.17194 average: 0.312669
smoothSolver:  Solving for phit, Initial residual = 0.0532013, Final residual = 0.00033829, No Iterations 7
bounding phit, min: 0 max: 1.42238 average: 0.319951
ExecutionTime = 56.82 s  ClockTime = 57 s

Time = 18

smoothSolver:  Solving for Ux, Initial residual = 0.0279229, Final residual = 0.00025087, No Iterations 10
smoothSolver:  Solving for Uy, Initial residual = 0.104127, Final residual = 0.000747608, No Iterations 8
GAMG:  Solving for p, Initial residual = 0.0210439, Final residual = 0.000209413, No Iterations 173
time step continuity errors : sum local = 0.000288366, global = 3.18935e-05, cumulative = 0.00112355
smoothSolver:  Solving for epsilon, Initial residual = 0.0180652, Final residual = 0.000115479, No Iterations 8
bounding epsilon, min: -0.000282908 max: 19.7122 average: 0.167207
smoothSolver:  Solving for k, Initial residual = 0.0282811, Final residual = 0.000206308, No Iterations 9
bounding k, min: -0.00286169 max: 0.371747 average: 0.0556829
smoothSolver:  Solving for f, Initial residual = 0.0621465, Final residual = 0.00041465, No Iterations 8
bounding f, min: -0.116975 max: 2.17065 average: 0.311265
smoothSolver:  Solving for phit, Initial residual = 0.0476493, Final residual = 0.00029328, No Iterations 7
bounding phit, min: 0 max: 1.41503 average: 0.318468
ExecutionTime = 57.69 s  ClockTime = 57 s

Time = 19

smoothSolver:  Solving for Ux, Initial residual = 0.0260192, Final residual = 0.000237578, No Iterations 10
smoothSolver:  Solving for Uy, Initial residual = 0.100387, Final residual = 0.00073887, No Iterations 8
GAMG:  Solving for p, Initial residual = 0.0216808, Final residual = 0.000215876, No Iterations 184
time step continuity errors : sum local = 0.000288852, global = 2.73049e-05, cumulative = 0.00115085
smoothSolver:  Solving for epsilon, Initial residual = 0.0151702, Final residual = 9.84467e-05, No Iterations 8
bounding epsilon, min: -0.00068358 max: 26.4384 average: 0.175474
smoothSolver:  Solving for k, Initial residual = 0.0259845, Final residual = 0.000184064, No Iterations 9
bounding k, min: -0.00554272 max: 0.355218 average: 0.0572379
smoothSolver:  Solving for f, Initial residual = 0.0536752, Final residual = 0.000418929, No Iterations 8
bounding f, min: -0.119538 max: 2.0424 average: 0.310257
smoothSolver:  Solving for phit, Initial residual = 0.0436698, Final residual = 0.000307094, No Iterations 7
bounding phit, min: 0 max: 1.4075 average: 0.318107
ExecutionTime = 58.61 s  ClockTime = 58 s

Time = 20

smoothSolver:  Solving for Ux, Initial residual = 0.0240572, Final residual = 0.000224104, No Iterations 10
smoothSolver:  Solving for Uy, Initial residual = 0.0955408, Final residual = 0.000721824, No Iterations 8
GAMG:  Solving for p, Initial residual = 0.0217233, Final residual = 0.000216911, No Iterations 222
time step continuity errors : sum local = 0.000279212, global = 2.48951e-05, cumulative = 0.00117575
smoothSolver:  Solving for epsilon, Initial residual = 0.0152597, Final residual = 0.000150773, No Iterations 7
bounding epsilon, min: -0.000740984 max: 30.9432 average: 0.18389
smoothSolver:  Solving for k, Initial residual = 0.0242188, Final residual = 0.000165431, No Iterations 9
bounding k, min: -0.00269745 max: 0.335224 average: 0.0585718
smoothSolver:  Solving for f, Initial residual = 0.0474818, Final residual = 0.000402877, No Iterations 8
bounding f, min: -0.122223 max: 2.01167 average: 0.309364
smoothSolver:  Solving for phit, Initial residual = 0.0402489, Final residual = 0.000308157, No Iterations 7
bounding phit, min: 0 max: 1.39814 average: 0.318847
ExecutionTime = 59.69 s  ClockTime = 59 s

Time = 21

smoothSolver:  Solving for Ux, Initial residual = 0.0245218, Final residual = 0.000210335, No Iterations 10
smoothSolver:  Solving for Uy, Initial residual = 0.11882, Final residual = 0.000725472, No Iterations 8
GAMG:  Solving for p, Initial residual = 0.0220492, Final residual = 0.000220124, No Iterations 238
time step continuity errors : sum local = 0.000268898, global = 2.456e-05, cumulative = 0.00120031
smoothSolver:  Solving for epsilon, Initial residual = 0.0157779, Final residual = 0.000142227, No Iterations 7
bounding epsilon, min: -0.00133819 max: 26.4338 average: 0.193897
smoothSolver:  Solving for k, Initial residual = 0.0260608, Final residual = 0.000169063, No Iterations 9
bounding k, min: -0.000454267 max: 0.313286 average: 0.0597194
smoothSolver:  Solving for f, Initial residual = 0.0499266, Final residual = 0.000402908, No Iterations 8
bounding f, min: -0.124869 max: 5.16684 average: 0.309597
smoothSolver:  Solving for phit, Initial residual = 0.0430661, Final residual = 0.000338425, No Iterations 8
bounding phit, min: 0 max: 1.38955 average: 0.320946
ExecutionTime = 60.83 s  ClockTime = 61 s

Time = 22

smoothSolver:  Solving for Ux, Initial residual = 0.0205285, Final residual = 0.00019929, No Iterations 10
smoothSolver:  Solving for Uy, Initial residual = 0.0845496, Final residual = 0.00068316, No Iterations 8
GAMG:  Solving for p, Initial residual = 0.022636, Final residual = 0.000226046, No Iterations 238
time step continuity errors : sum local = 0.00026015, global = 2.44732e-05, cumulative = 0.00122478
smoothSolver:  Solving for epsilon, Initial residual = 0.0147153, Final residual = 0.000128308, No Iterations 7
bounding epsilon, min: -0.00128963 max: 25.4092 average: 0.205541
smoothSolver:  Solving for k, Initial residual = 0.0215605, Final residual = 0.000139771, No Iterations 9
bounding k, min: -0.000360401 max: 0.29149 average: 0.0606841
smoothSolver:  Solving for f, Initial residual = 0.0571263, Final residual = 0.00042424, No Iterations 8
bounding f, min: -0.127432 max: 1.82658 average: 0.309396
smoothSolver:  Solving for phit, Initial residual = 0.0364911, Final residual = 0.000343948, No Iterations 7
bounding phit, min: 0 max: 1.4061 average: 0.323774
ExecutionTime = 61.96 s  ClockTime = 62 s

Time = 23

smoothSolver:  Solving for Ux, Initial residual = 0.0194462, Final residual = 0.000188861, No Iterations 10
smoothSolver:  Solving for Uy, Initial residual = 0.0839421, Final residual = 0.000650021, No Iterations 8
GAMG:  Solving for p, Initial residual = 0.0237535, Final residual = 0.000236596, No Iterations 228
time step continuity errors : sum local = 0.000255448, global = 2.37869e-05, cumulative = 0.00124857
smoothSolver:  Solving for epsilon, Initial residual = 0.0123526, Final residual = 0.000112397, No Iterations 7
bounding epsilon, min: -0.00175121 max: 27.2604 average: 0.216811
smoothSolver:  Solving for k, Initial residual = 0.0207324, Final residual = 0.000133379, No Iterations 9
bounding k, min: -8.92206e-07 max: 0.267661 average: 0.061485
smoothSolver:  Solving for f, Initial residual = 0.063585, Final residual = 0.00045514, No Iterations 8
bounding f, min: -0.129903 max: 1.67877 average: 0.309749
smoothSolver:  Solving for phit, Initial residual = 0.03728, Final residual = 0.000237425, No Iterations 8
bounding phit, min: 0 max: 1.41575 average: 0.327153
ExecutionTime = 63.04 s  ClockTime = 63 s

Time = 24

smoothSolver:  Solving for Ux, Initial residual = 0.0179091, Final residual = 0.000178903, No Iterations 10
smoothSolver:  Solving for Uy, Initial residual = 0.0756191, Final residual = 0.000616222, No Iterations 8
GAMG:  Solving for p, Initial residual = 0.0252614, Final residual = 0.000251529, No Iterations 228
time step continuity errors : sum local = 0.000255378, global = 2.34385e-05, cumulative = 0.00127201
smoothSolver:  Solving for epsilon, Initial residual = 0.00960757, Final residual = 9.42777e-05, No Iterations 7
bounding epsilon, min: -0.00114829 max: 28.4099 average: 0.225975
smoothSolver:  Solving for k, Initial residual = 0.0188877, Final residual = 0.000120908, No Iterations 9
bounding k, min: -0.00117901 max: 0.252079 average: 0.0621202
smoothSolver:  Solving for f, Initial residual = 0.0632817, Final residual = 0.00047396, No Iterations 8
bounding f, min: -0.132269 max: 1.71288 average: 0.31015
smoothSolver:  Solving for phit, Initial residual = 0.0345444, Final residual = 0.000247698, No Iterations 8
bounding phit, min: 0 max: 1.42496 average: 0.331023
ExecutionTime = 64.13 s  ClockTime = 64 s

Time = 25

smoothSolver:  Solving for Ux, Initial residual = 0.0169443, Final residual = 0.00011201, No Iterations 11
smoothSolver:  Solving for Uy, Initial residual = 0.0724397, Final residual = 0.000582921, No Iterations 8
GAMG:  Solving for p, Initial residual = 0.0269552, Final residual = 0.000269377, No Iterations 228
time step continuity errors : sum local = 0.000256996, global = 2.34394e-05, cumulative = 0.00129545
smoothSolver:  Solving for epsilon, Initial residual = 0.00784229, Final residual = 4.67873e-05, No Iterations 8
bounding epsilon, min: -2.56931e-05 max: 28.5784 average: 0.233449
smoothSolver:  Solving for k, Initial residual = 0.0179674, Final residual = 0.000117407, No Iterations 9
bounding k, min: -0.000534151 max: 0.275783 average: 0.0626378
smoothSolver:  Solving for f, Initial residual = 0.0567951, Final residual = 0.000465864, No Iterations 8
bounding f, min: -0.13452 max: 1.91391 average: 0.310832
smoothSolver:  Solving for phit, Initial residual = 0.0347278, Final residual = 0.000274026, No Iterations 8
bounding phit, min: 0 max: 1.43616 average: 0.335097
ExecutionTime = 65.23 s  ClockTime = 65 s

Time = 26

smoothSolver:  Solving for Ux, Initial residual = 0.0162294, Final residual = 0.000107042, No Iterations 11
smoothSolver:  Solving for Uy, Initial residual = 0.070764, Final residual = 0.000569445, No Iterations 8
GAMG:  Solving for p, Initial residual = 0.0291904, Final residual = 0.000289814, No Iterations 218
time step continuity errors : sum local = 0.000259712, global = 2.39451e-05, cumulative = 0.00131939
smoothSolver:  Solving for epsilon, Initial residual = 0.00717869, Final residual = 7.14233e-05, No Iterations 7
bounding epsilon, min: -0.000672018 max: 32.2672 average: 0.24092
smoothSolver:  Solving for k, Initial residual = 0.0172723, Final residual = 0.000115556, No Iterations 9
bounding k, min: -0.00173893 max: 0.237216 average: 0.0630815
smoothSolver:  Solving for f, Initial residual = 0.049309, Final residual = 0.000436801, No Iterations 8
bounding f, min: -0.136862 max: 1.97341 average: 0.311463
smoothSolver:  Solving for phit, Initial residual = 0.0346304, Final residual = 0.000289374, No Iterations 8
bounding phit, min: 0 max: 1.45769 average: 0.339353
ExecutionTime = 66.3 s  ClockTime = 66 s

Time = 27

smoothSolver:  Solving for Ux, Initial residual = 0.0156014, Final residual = 0.000102923, No Iterations 11
smoothSolver:  Solving for Uy, Initial residual = 0.0695105, Final residual = 0.000563246, No Iterations 8
GAMG:  Solving for p, Initial residual = 0.0311471, Final residual = 0.000309679, No Iterations 202
time step continuity errors : sum local = 0.000261963, global = 2.43496e-05, cumulative = 0.00134374
smoothSolver:  Solving for epsilon, Initial residual = 0.00703049, Final residual = 6.49543e-05, No Iterations 7
bounding epsilon, min: -0.000514085 max: 18.5636 average: 0.24869
smoothSolver:  Solving for k, Initial residual = 0.016803, Final residual = 0.000119307, No Iterations 9
bounding k, min: -5.76255e-05 max: 0.232352 average: 0.0634487
smoothSolver:  Solving for f, Initial residual = 0.0457101, Final residual = 0.000408957, No Iterations 8
bounding f, min: -0.139152 max: 2.08267 average: 0.31199
smoothSolver:  Solving for phit, Initial residual = 0.0355852, Final residual = 0.000305402, No Iterations 8
bounding phit, min: 0 max: 1.47612 average: 0.343577
ExecutionTime = 67.28 s  ClockTime = 67 s

Time = 28

smoothSolver:  Solving for Ux, Initial residual = 0.0151814, Final residual = 9.95678e-05, No Iterations 11
smoothSolver:  Solving for Uy, Initial residual = 0.0703033, Final residual = 0.000563735, No Iterations 8
GAMG:  Solving for p, Initial residual = 0.0351103, Final residual = 0.00035074, No Iterations 174
time step continuity errors : sum local = 0.000280054, global = 2.61045e-05, cumulative = 0.00136985
smoothSolver:  Solving for epsilon, Initial residual = 0.00661861, Final residual = 5.93508e-05, No Iterations 7
bounding epsilon, min: -8.6457e-05 max: 22.0547 average: 0.257254
smoothSolver:  Solving for k, Initial residual = 0.0167459, Final residual = 0.00012817, No Iterations 9
smoothSolver:  Solving for f, Initial residual = 0.0444634, Final residual = 0.000389481, No Iterations 8
bounding f, min: -0.141371 max: 2.02456 average: 0.312483
smoothSolver:  Solving for phit, Initial residual = 0.0371208, Final residual = 0.000325096, No Iterations 8
bounding phit, min: 0 max: 1.49088 average: 0.348019
ExecutionTime = 68.15 s  ClockTime = 68 s

Time = 29

smoothSolver:  Solving for Ux, Initial residual = 0.0147859, Final residual = 0.000146887, No Iterations 10
smoothSolver:  Solving for Uy, Initial residual = 0.0702916, Final residual = 0.000562377, No Iterations 8
GAMG:  Solving for p, Initial residual = 0.03916, Final residual = 0.000389114, No Iterations 154
time step continuity errors : sum local = 0.000293703, global = 2.69837e-05, cumulative = 0.00139683
smoothSolver:  Solving for epsilon, Initial residual = 0.0058703, Final residual = 5.3433e-05, No Iterations 7
bounding epsilon, min: -0.000304617 max: 18.5136 average: 0.264943
smoothSolver:  Solving for k, Initial residual = 0.0167281, Final residual = 0.000139784, No Iterations 9
bounding k, min: -0.000239292 max: 0.222194 average: 0.0638951
smoothSolver:  Solving for f, Initial residual = 0.0439956, Final residual = 0.000375033, No Iterations 8
bounding f, min: -0.143513 max: 2.01345 average: 0.313094
smoothSolver:  Solving for phit, Initial residual = 0.0381992, Final residual = 0.000339452, No Iterations 8
bounding phit, min: 0 max: 1.50374 average: 0.352815
ExecutionTime = 68.95 s  ClockTime = 69 s

Time = 30

smoothSolver:  Solving for Ux, Initial residual = 0.0144834, Final residual = 0.000142672, No Iterations 10
smoothSolver:  Solving for Uy, Initial residual = 0.0705658, Final residual = 0.00056821, No Iterations 8
GAMG:  Solving for p, Initial residual = 0.0442921, Final residual = 0.000442771, No Iterations 128
time step continuity errors : sum local = 0.000313783, global = 3.01929e-05, cumulative = 0.00142702
smoothSolver:  Solving for epsilon, Initial residual = 0.0048481, Final residual = 4.75718e-05, No Iterations 7
bounding epsilon, min: -6.52706e-05 max: 18.5225 average: 0.271541
smoothSolver:  Solving for k, Initial residual = 0.016977, Final residual = 0.000155917, No Iterations 9
bounding k, min: -0.000275285 max: 0.216885 average: 0.0639751
smoothSolver:  Solving for f, Initial residual = 0.041146, Final residual = 0.000355757, No Iterations 8
bounding f, min: -0.145567 max: 2.14533 average: 0.313653
smoothSolver:  Solving for phit, Initial residual = 0.0404109, Final residual = 0.000357338, No Iterations 8
bounding phit, min: 0 max: 1.51666 average: 0.357873
ExecutionTime = 69.63 s  ClockTime = 69 s

Time = 31

smoothSolver:  Solving for Ux, Initial residual = 0.014164, Final residual = 0.000138552, No Iterations 10
smoothSolver:  Solving for Uy, Initial residual = 0.0713625, Final residual = 0.000576661, No Iterations 8
GAMG:  Solving for p, Initial residual = 0.0488, Final residual = 0.000487511, No Iterations 120
time step continuity errors : sum local = 0.000324914, global = 3.20611e-05, cumulative = 0.00145908
smoothSolver:  Solving for epsilon, Initial residual = 0.00401526, Final residual = 2.57483e-05, No Iterations 8
bounding epsilon, min: -7.76004e-05 max: 18.5308 average: 0.276901
smoothSolver:  Solving for k, Initial residual = 0.0174361, Final residual = 0.00017028, No Iterations 9
bounding k, min: -2.48577e-05 max: 0.211551 average: 0.0639685
smoothSolver:  Solving for f, Initial residual = 0.0362519, Final residual = 0.000330294, No Iterations 8
bounding f, min: -0.14753 max: 2.12351 average: 0.314137
smoothSolver:  Solving for phit, Initial residual = 0.0426105, Final residual = 0.000378351, No Iterations 8
bounding phit, min: 0 max: 1.53894 average: 0.362953
ExecutionTime = 70.3 s  ClockTime = 70 s

Time = 32

smoothSolver:  Solving for Ux, Initial residual = 0.0138221, Final residual = 0.000134457, No Iterations 10
smoothSolver:  Solving for Uy, Initial residual = 0.0717034, Final residual = 0.000587252, No Iterations 8
GAMG:  Solving for p, Initial residual = 0.0527811, Final residual = 0.000525104, No Iterations 124
time step continuity errors : sum local = 0.000326019, global = 3.52497e-05, cumulative = 0.00149433
smoothSolver:  Solving for epsilon, Initial residual = 0.00363701, Final residual = 2.53373e-05, No Iterations 8
bounding epsilon, min: -9.20572e-05 max: 18.5271 average: 0.28154
smoothSolver:  Solving for k, Initial residual = 0.0182165, Final residual = 0.000118663, No Iterations 10
smoothSolver:  Solving for f, Initial residual = 0.0310446, Final residual = 0.000300727, No Iterations 8
bounding f, min: -0.149392 max: 1.98052 average: 0.314366
smoothSolver:  Solving for phit, Initial residual = 0.043907, Final residual = 0.000398776, No Iterations 8
bounding phit, min: 0 max: 1.55673 average: 0.368183
ExecutionTime = 70.97 s  ClockTime = 71 s

Time = 33

smoothSolver:  Solving for Ux, Initial residual = 0.0135495, Final residual = 0.000130754, No Iterations 10
smoothSolver:  Solving for Uy, Initial residual = 0.07199, Final residual = 0.000595334, No Iterations 8
GAMG:  Solving for p, Initial residual = 0.0569005, Final residual = 0.00056543, No Iterations 127
time step continuity errors : sum local = 0.000326743, global = -4.32464e-05, cumulative = 0.00145109
smoothSolver:  Solving for epsilon, Initial residual = 0.00349146, Final residual = 2.51708e-05, No Iterations 8
bounding epsilon, min: -0.000549295 max: 18.5166 average: 0.285953
smoothSolver:  Solving for k, Initial residual = 0.019002, Final residual = 0.000126988, No Iterations 10
smoothSolver:  Solving for f, Initial residual = 0.0275783, Final residual = 0.000273922, No Iterations 8
bounding f, min: -0.151155 max: 2.02682 average: 0.314289
smoothSolver:  Solving for phit, Initial residual = 0.0442276, Final residual = 0.000411149, No Iterations 8
bounding phit, min: 0 max: 1.56476 average: 0.373362
ExecutionTime = 71.65 s  ClockTime = 71 s

Time = 34

smoothSolver:  Solving for Ux, Initial residual = 0.0133334, Final residual = 0.00012708, No Iterations 10
smoothSolver:  Solving for Uy, Initial residual = 0.0712074, Final residual = 0.000603492, No Iterations 8
GAMG:  Solving for p, Initial residual = 0.0614837, Final residual = 0.000607613, No Iterations 129
time step continuity errors : sum local = 0.000326868, global = -3.77039e-05, cumulative = 0.00141338
smoothSolver:  Solving for epsilon, Initial residual = 0.0034065, Final residual = 2.51019e-05, No Iterations 8
bounding epsilon, min: -8.04999e-05 max: 18.5092 average: 0.289918
smoothSolver:  Solving for k, Initial residual = 0.019823, Final residual = 0.000137338, No Iterations 10
smoothSolver:  Solving for f, Initial residual = 0.0258201, Final residual = 0.000253554, No Iterations 8
bounding f, min: -0.152809 max: 1.88655 average: 0.313987
smoothSolver:  Solving for phit, Initial residual = 0.0454004, Final residual = 0.000429049, No Iterations 8
bounding phit, min: 0 max: 1.56987 average: 0.378391
ExecutionTime = 72.34 s  ClockTime = 72 s

Time = 35

smoothSolver:  Solving for Ux, Initial residual = 0.0131304, Final residual = 0.000123648, No Iterations 10
smoothSolver:  Solving for Uy, Initial residual = 0.0705353, Final residual = 0.00061094, No Iterations 8
GAMG:  Solving for p, Initial residual = 0.0671919, Final residual = 0.000666405, No Iterations 127
time step continuity errors : sum local = 0.000337006, global = -3.50712e-05, cumulative = 0.00137831
smoothSolver:  Solving for epsilon, Initial residual = 0.00322146, Final residual = 2.54305e-05, No Iterations 8
smoothSolver:  Solving for k, Initial residual = 0.0205986, Final residual = 0.000144851, No Iterations 10
smoothSolver:  Solving for f, Initial residual = 0.0244948, Final residual = 0.000236639, No Iterations 8
bounding f, min: -0.154356 max: 1.79115 average: 0.313221
smoothSolver:  Solving for phit, Initial residual = 0.0463564, Final residual = 0.000440039, No Iterations 8
bounding phit, min: 0 max: 1.5888 average: 0.3832
ExecutionTime = 73.01 s  ClockTime = 73 s

Time = 36

smoothSolver:  Solving for Ux, Initial residual = 0.0129492, Final residual = 0.000120699, No Iterations 10
smoothSolver:  Solving for Uy, Initial residual = 0.0701505, Final residual = 0.000627848, No Iterations 8
GAMG:  Solving for p, Initial residual = 0.0719137, Final residual = 0.000712661, No Iterations 123
time step continuity errors : sum local = 0.000346781, global = -3.43453e-05, cumulative = 0.00134397
smoothSolver:  Solving for epsilon, Initial residual = 0.00289642, Final residual = 2.59225e-05, No Iterations 8
bounding epsilon, min: -6.83627e-05 max: 18.5101 average: 0.297236
smoothSolver:  Solving for k, Initial residual = 0.0215979, Final residual = 0.000155794, No Iterations 10
smoothSolver:  Solving for f, Initial residual = 0.0234054, Final residual = 0.000221007, No Iterations 8
bounding f, min: -0.155792 max: 2.37613 average: 0.312458
smoothSolver:  Solving for phit, Initial residual = 0.0476538, Final residual = 0.000452101, No Iterations 8
bounding phit, min: 0 max: 1.60458 average: 0.388004
ExecutionTime = 73.7 s  ClockTime = 73 s

Time = 37

smoothSolver:  Solving for Ux, Initial residual = 0.0125446, Final residual = 0.000116635, No Iterations 10
smoothSolver:  Solving for Uy, Initial residual = 0.0675322, Final residual = 0.000616955, No Iterations 8
GAMG:  Solving for p, Initial residual = 0.0729878, Final residual = 0.000726894, No Iterations 115
time step continuity errors : sum local = 0.000343687, global = -3.27885e-05, cumulative = 0.00131118
smoothSolver:  Solving for epsilon, Initial residual = 0.00263924, Final residual = 1.61964e-05, No Iterations 9
smoothSolver:  Solving for k, Initial residual = 0.0224609, Final residual = 0.000162662, No Iterations 10
smoothSolver:  Solving for f, Initial residual = 0.0214498, Final residual = 0.000204499, No Iterations 8
bounding f, min: -0.157124 max: 1.66371 average: 0.311223
smoothSolver:  Solving for phit, Initial residual = 0.047673, Final residual = 0.000462318, No Iterations 8
bounding phit, min: 0 max: 1.60322 average: 0.392661
ExecutionTime = 74.35 s  ClockTime = 74 s

Time = 38

smoothSolver:  Solving for Ux, Initial residual = 0.0120395, Final residual = 0.000113058, No Iterations 10
smoothSolver:  Solving for Uy, Initial residual = 0.0654173, Final residual = 0.000613628, No Iterations 8
GAMG:  Solving for p, Initial residual = 0.0726185, Final residual = 0.00071422, No Iterations 112
time step continuity errors : sum local = 0.000331783, global = -3.15089e-05, cumulative = 0.00127967
smoothSolver:  Solving for epsilon, Initial residual = 0.00248747, Final residual = 1.64603e-05, No Iterations 9
bounding epsilon, min: -0.000155326 max: 18.5079 average: 0.302432
smoothSolver:  Solving for k, Initial residual = 0.0232855, Final residual = 0.000170399, No Iterations 10
smoothSolver:  Solving for f, Initial residual = 0.0190223, Final residual = 0.000185778, No Iterations 8
bounding f, min: -0.15835 max: 1.60236 average: 0.309814
smoothSolver:  Solving for phit, Initial residual = 0.0464899, Final residual = 0.000300985, No Iterations 9
bounding phit, min: 0 max: 1.608 average: 0.397307
ExecutionTime = 74.96 s  ClockTime = 75 s

Time = 39

smoothSolver:  Solving for Ux, Initial residual = 0.0115418, Final residual = 0.000109756, No Iterations 10
smoothSolver:  Solving for Uy, Initial residual = 0.0628209, Final residual = 0.000604634, No Iterations 8
GAMG:  Solving for p, Initial residual = 0.0714517, Final residual = 0.000703811, No Iterations 106
time step continuity errors : sum local = 0.000323072, global = -3.00641e-05, cumulative = 0.0012496
smoothSolver:  Solving for epsilon, Initial residual = 0.00237912, Final residual = 1.62438e-05, No Iterations 9
smoothSolver:  Solving for k, Initial residual = 0.0241484, Final residual = 0.000177853, No Iterations 10
smoothSolver:  Solving for f, Initial residual = 0.0175665, Final residual = 0.000170371, No Iterations 8
bounding f, min: -0.159469 max: 1.56817 average: 0.308058
smoothSolver:  Solving for phit, Initial residual = 0.0449203, Final residual = 0.000299844, No Iterations 9
bounding phit, min: 0 max: 1.61955 average: 0.40203
ExecutionTime = 75.56 s  ClockTime = 75 s

Time = 40

smoothSolver:  Solving for Ux, Initial residual = 0.0110647, Final residual = 0.000106799, No Iterations 10
smoothSolver:  Solving for Uy, Initial residual = 0.0604871, Final residual = 0.000589985, No Iterations 8
GAMG:  Solving for p, Initial residual = 0.0710349, Final residual = 0.000698458, No Iterations 102
time step continuity errors : sum local = 0.000316315, global = -2.78927e-05, cumulative = 0.00122171
smoothSolver:  Solving for epsilon, Initial residual = 0.00233159, Final residual = 1.62036e-05, No Iterations 9
smoothSolver:  Solving for k, Initial residual = 0.0250297, Final residual = 0.000187072, No Iterations 10
smoothSolver:  Solving for f, Initial residual = 0.0158649, Final residual = 0.000156551, No Iterations 8
bounding f, min: -0.160484 max: 1.50505 average: 0.305534
smoothSolver:  Solving for phit, Initial residual = 0.0432978, Final residual = 0.000297696, No Iterations 9
bounding phit, min: 0 max: 1.62962 average: 0.406768
ExecutionTime = 76.16 s  ClockTime = 76 s

Time = 41

smoothSolver:  Solving for Ux, Initial residual = 0.0106487, Final residual = 0.000103932, No Iterations 10
smoothSolver:  Solving for Uy, Initial residual = 0.0583848, Final residual = 0.000579589, No Iterations 8
GAMG:  Solving for p, Initial residual = 0.0711822, Final residual = 0.000706464, No Iterations 100
time step continuity errors : sum local = 0.000314795, global = -2.58565e-05, cumulative = 0.00119586
smoothSolver:  Solving for epsilon, Initial residual = 0.00220171, Final residual = 1.6079e-05, No Iterations 9
smoothSolver:  Solving for k, Initial residual = 0.0258174, Final residual = 0.000193051, No Iterations 10
smoothSolver:  Solving for f, Initial residual = 0.0147472, Final residual = 0.000144409, No Iterations 8
bounding f, min: -0.161916 max: 1.57037 average: 0.302731
smoothSolver:  Solving for phit, Initial residual = 0.0419103, Final residual = 0.000297113, No Iterations 9
bounding phit, min: 0 max: 1.62784 average: 0.411324
ExecutionTime = 76.73 s  ClockTime = 76 s

Time = 42

smoothSolver:  Solving for Ux, Initial residual = 0.010227, Final residual = 0.000100997, No Iterations 10
smoothSolver:  Solving for Uy, Initial residual = 0.0563592, Final residual = 0.000358131, No Iterations 9
GAMG:  Solving for p, Initial residual = 0.0693833, Final residual = 0.000687462, No Iterations 104
time step continuity errors : sum local = 0.000299445, global = -2.27723e-05, cumulative = 0.00117308
smoothSolver:  Solving for epsilon, Initial residual = 0.00205111, Final residual = 1.58718e-05, No Iterations 9
smoothSolver:  Solving for k, Initial residual = 0.0266492, Final residual = 0.000200213, No Iterations 10
smoothSolver:  Solving for f, Initial residual = 0.0134629, Final residual = 0.000133487, No Iterations 8
bounding f, min: -0.163361 max: 1.41008 average: 0.299831
smoothSolver:  Solving for phit, Initial residual = 0.0407923, Final residual = 0.000295395, No Iterations 9
bounding phit, min: 0 max: 1.63579 average: 0.415523
ExecutionTime = 77.31 s  ClockTime = 77 s

Time = 43

smoothSolver:  Solving for Ux, Initial residual = 0.00986334, Final residual = 9.8072e-05, No Iterations 10
smoothSolver:  Solving for Uy, Initial residual = 0.054588, Final residual = 0.00035579, No Iterations 9
GAMG:  Solving for p, Initial residual = 0.0670081, Final residual = 0.000667257, No Iterations 106
time step continuity errors : sum local = 0.000283868, global = -2.01158e-05, cumulative = 0.00115297
smoothSolver:  Solving for epsilon, Initial residual = 0.002071, Final residual = 1.5711e-05, No Iterations 9
smoothSolver:  Solving for k, Initial residual = 0.027483, Final residual = 0.00020652, No Iterations 10
smoothSolver:  Solving for f, Initial residual = 0.0119347, Final residual = 7.42505e-05, No Iterations 9
bounding f, min: -0.164918 max: 1.48308 average: 0.297128
smoothSolver:  Solving for phit, Initial residual = 0.039869, Final residual = 0.000290529, No Iterations 9
bounding phit, min: 0 max: 1.65901 average: 0.419306
ExecutionTime = 77.92 s  ClockTime = 78 s

Time = 44

smoothSolver:  Solving for Ux, Initial residual = 0.00952236, Final residual = 9.49338e-05, No Iterations 10
smoothSolver:  Solving for Uy, Initial residual = 0.0537592, Final residual = 0.00035509, No Iterations 9
GAMG:  Solving for p, Initial residual = 0.0646005, Final residual = 0.000644729, No Iterations 110
time step continuity errors : sum local = 0.000266489, global = -1.80788e-05, cumulative = 0.00113489
smoothSolver:  Solving for epsilon, Initial residual = 0.00215166, Final residual = 1.562e-05, No Iterations 9
smoothSolver:  Solving for k, Initial residual = 0.0283655, Final residual = 0.000215761, No Iterations 10
smoothSolver:  Solving for f, Initial residual = 0.0106847, Final residual = 6.72435e-05, No Iterations 9
bounding f, min: -0.166197 max: 1.31849 average: 0.294569
smoothSolver:  Solving for phit, Initial residual = 0.0387502, Final residual = 0.000286768, No Iterations 9
bounding phit, min: 0 max: 1.66271 average: 0.422874
ExecutionTime = 78.54 s  ClockTime = 78 s

Time = 45

smoothSolver:  Solving for Ux, Initial residual = 0.0091588, Final residual = 5.98675e-05, No Iterations 11
smoothSolver:  Solving for Uy, Initial residual = 0.0535289, Final residual = 0.000356211, No Iterations 9
GAMG:  Solving for p, Initial residual = 0.0630459, Final residual = 0.000627582, No Iterations 110
time step continuity errors : sum local = 0.000252103, global = -1.69373e-05, cumulative = 0.00111795
smoothSolver:  Solving for epsilon, Initial residual = 0.00212369, Final residual = 1.52159e-05, No Iterations 9
smoothSolver:  Solving for k, Initial residual = 0.0291252, Final residual = 0.000222455, No Iterations 10
smoothSolver:  Solving for f, Initial residual = 0.0103521, Final residual = 0.000100335, No Iterations 8
bounding f, min: -0.167195 max: 1.251 average: 0.292163
smoothSolver:  Solving for phit, Initial residual = 0.0372863, Final residual = 0.000282171, No Iterations 9
bounding phit, min: 0 max: 1.66241 average: 0.426249
ExecutionTime = 79.16 s  ClockTime = 79 s

Time = 46

smoothSolver:  Solving for Ux, Initial residual = 0.00880103, Final residual = 5.78334e-05, No Iterations 11
smoothSolver:  Solving for Uy, Initial residual = 0.0528872, Final residual = 0.000360443, No Iterations 9
GAMG:  Solving for p, Initial residual = 0.0609498, Final residual = 0.000602374, No Iterations 112
time step continuity errors : sum local = 0.000233933, global = -1.61708e-05, cumulative = 0.00110178
smoothSolver:  Solving for epsilon, Initial residual = 0.00211106, Final residual = 1.49578e-05, No Iterations 9
smoothSolver:  Solving for k, Initial residual = 0.0299218, Final residual = 0.000228555, No Iterations 10
smoothSolver:  Solving for f, Initial residual = 0.0101348, Final residual = 9.18997e-05, No Iterations 8
bounding f, min: -0.168305 max: 1.48961 average: 0.289757
smoothSolver:  Solving for phit, Initial residual = 0.0361876, Final residual = 0.000277385, No Iterations 9
bounding phit, min: 0 max: 1.67732 average: 0.429394
ExecutionTime = 79.79 s  ClockTime = 80 s

Time = 47

smoothSolver:  Solving for Ux, Initial residual = 0.00843853, Final residual = 5.58546e-05, No Iterations 11
smoothSolver:  Solving for Uy, Initial residual = 0.0517621, Final residual = 0.00036606, No Iterations 9
GAMG:  Solving for p, Initial residual = 0.0588851, Final residual = 0.000586678, No Iterations 112
time step continuity errors : sum local = 0.000218208, global = -1.57353e-05, cumulative = 0.00108605
smoothSolver:  Solving for epsilon, Initial residual = 0.00210044, Final residual = 1.46004e-05, No Iterations 9
smoothSolver:  Solving for k, Initial residual = 0.0306224, Final residual = 0.000231871, No Iterations 10
smoothSolver:  Solving for f, Initial residual = 0.00960325, Final residual = 8.43963e-05, No Iterations 8
bounding f, min: -0.169335 max: 1.72275 average: 0.28726
smoothSolver:  Solving for phit, Initial residual = 0.0345732, Final residual = 0.000267138, No Iterations 9
bounding phit, min: 0 max: 1.67955 average: 0.432312
ExecutionTime = 80.43 s  ClockTime = 80 s

Time = 48

smoothSolver:  Solving for Ux, Initial residual = 0.00811426, Final residual = 5.39462e-05, No Iterations 11
smoothSolver:  Solving for Uy, Initial residual = 0.0505203, Final residual = 0.000370107, No Iterations 9
GAMG:  Solving for p, Initial residual = 0.0573712, Final residual = 0.000569316, No Iterations 116
time step continuity errors : sum local = 0.000201472, global = -1.50424e-05, cumulative = 0.001071
smoothSolver:  Solving for epsilon, Initial residual = 0.0021217, Final residual = 1.41426e-05, No Iterations 9
bounding epsilon, min: -0.000379605 max: 18.5033 average: 0.304377
smoothSolver:  Solving for k, Initial residual = 0.0314695, Final residual = 0.000237115, No Iterations 10
smoothSolver:  Solving for f, Initial residual = 0.00928249, Final residual = 7.76946e-05, No Iterations 8
bounding f, min: -0.170289 max: 1.66886 average: 0.284811
smoothSolver:  Solving for phit, Initial residual = 0.0333475, Final residual = 0.000256525, No Iterations 9
bounding phit, min: 0 max: 1.67155 average: 0.434815
ExecutionTime = 81.08 s  ClockTime = 81 s

Time = 49

smoothSolver:  Solving for Ux, Initial residual = 0.00783087, Final residual = 5.2017e-05, No Iterations 11
smoothSolver:  Solving for Uy, Initial residual = 0.049176, Final residual = 0.000370484, No Iterations 9
GAMG:  Solving for p, Initial residual = 0.0573998, Final residual = 0.000573277, No Iterations 114
time step continuity errors : sum local = 0.000192222, global = -1.46942e-05, cumulative = 0.00105631
smoothSolver:  Solving for epsilon, Initial residual = 0.0021929, Final residual = 1.36988e-05, No Iterations 9
bounding epsilon, min: -0.000989476 max: 18.5032 average: 0.302992
smoothSolver:  Solving for k, Initial residual = 0.0323643, Final residual = 0.000243429, No Iterations 10
smoothSolver:  Solving for f, Initial residual = 0.00891099, Final residual = 7.12381e-05, No Iterations 8
bounding f, min: -0.171172 max: 1.7083 average: 0.282471
smoothSolver:  Solving for phit, Initial residual = 0.032213, Final residual = 0.000247248, No Iterations 9
bounding phit, min: 0 max: 1.67102 average: 0.437058
ExecutionTime = 81.7 s  ClockTime = 81 s

Time = 50

smoothSolver:  Solving for Ux, Initial residual = 0.00758155, Final residual = 5.01395e-05, No Iterations 11
smoothSolver:  Solving for Uy, Initial residual = 0.0481233, Final residual = 0.000370248, No Iterations 9
GAMG:  Solving for p, Initial residual = 0.0578537, Final residual = 0.000576292, No Iterations 116
time step continuity errors : sum local = 0.000182339, global = -1.42904e-05, cumulative = 0.00104202
smoothSolver:  Solving for epsilon, Initial residual = 0.00227583, Final residual = 2.20303e-05, No Iterations 8
smoothSolver:  Solving for k, Initial residual = 0.0332741, Final residual = 0.000247273, No Iterations 10
smoothSolver:  Solving for f, Initial residual = 0.00882603, Final residual = 6.47881e-05, No Iterations 8
bounding f, min: -0.17199 max: 1.8025 average: 0.280283
smoothSolver:  Solving for phit, Initial residual = 0.0309281, Final residual = 0.000233361, No Iterations 9
bounding phit, min: 0 max: 1.66777 average: 0.438924
ExecutionTime = 82.35 s  ClockTime = 82 s

Time = 51

smoothSolver:  Solving for Ux, Initial residual = 0.00737302, Final residual = 4.83938e-05, No Iterations 11
smoothSolver:  Solving for Uy, Initial residual = 0.0472109, Final residual = 0.000371404, No Iterations 9
GAMG:  Solving for p, Initial residual = 0.0594443, Final residual = 0.000587656, No Iterations 116
time step continuity errors : sum local = 0.000174866, global = -1.43625e-05, cumulative = 0.00102766
smoothSolver:  Solving for epsilon, Initial residual = 0.00225849, Final residual = 2.12752e-05, No Iterations 8
smoothSolver:  Solving for k, Initial residual = 0.0340112, Final residual = 0.000250889, No Iterations 10
smoothSolver:  Solving for f, Initial residual = 0.00879414, Final residual = 5.88761e-05, No Iterations 8
bounding f, min: -0.172743 max: 1.58717 average: 0.278185
smoothSolver:  Solving for phit, Initial residual = 0.0295886, Final residual = 0.000220453, No Iterations 9
bounding phit, min: 0 max: 1.66373 average: 0.440477
ExecutionTime = 83 s  ClockTime = 83 s

Time = 52

smoothSolver:  Solving for Ux, Initial residual = 0.00719868, Final residual = 7.18451e-05, No Iterations 10
smoothSolver:  Solving for Uy, Initial residual = 0.0468318, Final residual = 0.000374764, No Iterations 9
GAMG:  Solving for p, Initial residual = 0.0614634, Final residual = 0.000606311, No Iterations 114
time step continuity errors : sum local = 0.000169634, global = -1.49612e-05, cumulative = 0.00101269
smoothSolver:  Solving for epsilon, Initial residual = 0.00221835, Final residual = 2.0614e-05, No Iterations 8
smoothSolver:  Solving for k, Initial residual = 0.0347181, Final residual = 0.000253742, No Iterations 10
smoothSolver:  Solving for f, Initial residual = 0.00857692, Final residual = 5.36155e-05, No Iterations 8
bounding f, min: -0.173435 max: 1.27604 average: 0.276103
smoothSolver:  Solving for phit, Initial residual = 0.0283202, Final residual = 0.000209398, No Iterations 9
bounding phit, min: 0 max: 1.665 average: 0.441601
ExecutionTime = 83.62 s  ClockTime = 83 s

Time = 53

smoothSolver:  Solving for Ux, Initial residual = 0.00702262, Final residual = 6.99403e-05, No Iterations 10
smoothSolver:  Solving for Uy, Initial residual = 0.046158, Final residual = 0.000379061, No Iterations 9
GAMG:  Solving for p, Initial residual = 0.0632109, Final residual = 0.000631582, No Iterations 112
time step continuity errors : sum local = 0.000165669, global = -1.5727e-05, cumulative = 0.000996968
smoothSolver:  Solving for epsilon, Initial residual = 0.00222404, Final residual = 1.9947e-05, No Iterations 8
smoothSolver:  Solving for k, Initial residual = 0.0353185, Final residual = 0.000257524, No Iterations 10
smoothSolver:  Solving for f, Initial residual = 0.00846459, Final residual = 8.21756e-05, No Iterations 7
bounding f, min: -0.173658 max: 0.967099 average: 0.274062
smoothSolver:  Solving for phit, Initial residual = 0.0271466, Final residual = 0.00019788, No Iterations 9
bounding phit, min: 0 max: 1.67561 average: 0.442437
ExecutionTime = 84.23 s  ClockTime = 84 s

Time = 54

smoothSolver:  Solving for Ux, Initial residual = 0.0068271, Final residual = 6.82578e-05, No Iterations 10
smoothSolver:  Solving for Uy, Initial residual = 0.045556, Final residual = 0.000384736, No Iterations 9
GAMG:  Solving for p, Initial residual = 0.0642432, Final residual = 0.000642367, No Iterations 116
time step continuity errors : sum local = 0.000157255, global = -1.59477e-05, cumulative = 0.00098102
smoothSolver:  Solving for epsilon, Initial residual = 0.00223231, Final residual = 1.92117e-05, No Iterations 8
smoothSolver:  Solving for k, Initial residual = 0.0359231, Final residual = 0.000255668, No Iterations 10
smoothSolver:  Solving for f, Initial residual = 0.00836442, Final residual = 7.82025e-05, No Iterations 7
bounding f, min: -0.174232 max: 0.967954 average: 0.272018
smoothSolver:  Solving for phit, Initial residual = 0.0261048, Final residual = 0.000186779, No Iterations 9
bounding phit, min: 0 max: 1.67859 average: 0.443065
ExecutionTime = 84.86 s  ClockTime = 85 s

Time = 55

smoothSolver:  Solving for Ux, Initial residual = 0.00660723, Final residual = 4.34914e-05, No Iterations 11
smoothSolver:  Solving for Uy, Initial residual = 0.0445492, Final residual = 0.000388925, No Iterations 9
GAMG:  Solving for p, Initial residual = 0.0647725, Final residual = 0.000643554, No Iterations 124
time step continuity errors : sum local = 0.00014585, global = -1.6333e-05, cumulative = 0.000964687
smoothSolver:  Solving for epsilon, Initial residual = 0.00226162, Final residual = 1.83987e-05, No Iterations 8
smoothSolver:  Solving for k, Initial residual = 0.0364564, Final residual = 0.000260609, No Iterations 10
smoothSolver:  Solving for f, Initial residual = 0.00841489, Final residual = 7.81668e-05, No Iterations 7
bounding f, min: -0.174754 max: 0.968069 average: 0.270021
smoothSolver:  Solving for phit, Initial residual = 0.0249936, Final residual = 0.000172126, No Iterations 9
bounding phit, min: 0 max: 1.68776 average: 0.443525
ExecutionTime = 85.54 s  ClockTime = 85 s

Time = 56

smoothSolver:  Solving for Ux, Initial residual = 0.00637958, Final residual = 4.23982e-05, No Iterations 11
smoothSolver:  Solving for Uy, Initial residual = 0.0431381, Final residual = 0.000393129, No Iterations 9
GAMG:  Solving for p, Initial residual = 0.0664749, Final residual = 0.000663687, No Iterations 128
time step continuity errors : sum local = 0.000138732, global = -1.68502e-05, cumulative = 0.000947837
smoothSolver:  Solving for epsilon, Initial residual = 0.00229508, Final residual = 1.77212e-05, No Iterations 8
smoothSolver:  Solving for k, Initial residual = 0.0369389, Final residual = 0.000259084, No Iterations 10
smoothSolver:  Solving for f, Initial residual = 0.0085864, Final residual = 8.12097e-05, No Iterations 7
bounding f, min: -0.175227 max: 0.967403 average: 0.268125
smoothSolver:  Solving for phit, Initial residual = 0.0240254, Final residual = 0.000159639, No Iterations 9
bounding phit, min: 0 max: 1.68993 average: 0.443908
ExecutionTime = 86.22 s  ClockTime = 86 s

Time = 57

smoothSolver:  Solving for Ux, Initial residual = 0.00613968, Final residual = 4.13675e-05, No Iterations 11
smoothSolver:  Solving for Uy, Initial residual = 0.0421007, Final residual = 0.000396844, No Iterations 9
GAMG:  Solving for p, Initial residual = 0.0666264, Final residual = 0.000664821, No Iterations 138
time step continuity errors : sum local = 0.000128421, global = -1.66531e-05, cumulative = 0.000931184
smoothSolver:  Solving for epsilon, Initial residual = 0.00230867, Final residual = 1.69306e-05, No Iterations 8
smoothSolver:  Solving for k, Initial residual = 0.0373525, Final residual = 0.000258679, No Iterations 10
smoothSolver:  Solving for f, Initial residual = 0.00858242, Final residual = 8.5291e-05, No Iterations 7
bounding f, min: -0.176165 max: 0.965948 average: 0.266285
smoothSolver:  Solving for phit, Initial residual = 0.0231796, Final residual = 0.000148953, No Iterations 9
bounding phit, min: 0 max: 1.68995 average: 0.444157
ExecutionTime = 86.95 s  ClockTime = 87 s

Time = 58

smoothSolver:  Solving for Ux, Initial residual = 0.00592025, Final residual = 4.02757e-05, No Iterations 11
smoothSolver:  Solving for Uy, Initial residual = 0.0402861, Final residual = 0.000399865, No Iterations 9
GAMG:  Solving for p, Initial residual = 0.0677117, Final residual = 0.000675991, No Iterations 137
time step continuity errors : sum local = 0.00012032, global = 1.35193e-05, cumulative = 0.000944703
smoothSolver:  Solving for epsilon, Initial residual = 0.00232623, Final residual = 1.61974e-05, No Iterations 8
smoothSolver:  Solving for k, Initial residual = 0.037637, Final residual = 0.000258196, No Iterations 10
smoothSolver:  Solving for f, Initial residual = 0.00880228, Final residual = 5.45371e-05, No Iterations 8
bounding f, min: -0.177391 max: 0.963691 average: 0.264496
smoothSolver:  Solving for phit, Initial residual = 0.022343, Final residual = 0.000220944, No Iterations 8
bounding phit, min: 0 max: 1.68989 average: 0.444314
ExecutionTime = 87.68 s  ClockTime = 87 s

Time = 59

smoothSolver:  Solving for Ux, Initial residual = 0.00571679, Final residual = 3.92725e-05, No Iterations 11
smoothSolver:  Solving for Uy, Initial residual = 0.039207, Final residual = 0.000255987, No Iterations 10
GAMG:  Solving for p, Initial residual = 0.0679056, Final residual = 0.000675423, No Iterations 135
time step continuity errors : sum local = 0.00011123, global = 1.24692e-05, cumulative = 0.000957172
smoothSolver:  Solving for epsilon, Initial residual = 0.0023259, Final residual = 1.54084e-05, No Iterations 8
smoothSolver:  Solving for k, Initial residual = 0.0378076, Final residual = 0.00025857, No Iterations 10
smoothSolver:  Solving for f, Initial residual = 0.00893876, Final residual = 5.70428e-05, No Iterations 8
bounding f, min: -0.178248 max: 0.9607 average: 0.26275
smoothSolver:  Solving for phit, Initial residual = 0.0215822, Final residual = 0.000208329, No Iterations 8
bounding phit, min: 0 max: 1.68897 average: 0.444405
ExecutionTime = 88.4 s  ClockTime = 88 s

Time = 60

smoothSolver:  Solving for Ux, Initial residual = 0.00554095, Final residual = 3.82957e-05, No Iterations 11
smoothSolver:  Solving for Uy, Initial residual = 0.0374933, Final residual = 0.000256354, No Iterations 10
GAMG:  Solving for p, Initial residual = 0.068924, Final residual = 0.000688395, No Iterations 133
time step continuity errors : sum local = 0.00010515, global = -1.25775e-05, cumulative = 0.000944595
smoothSolver:  Solving for epsilon, Initial residual = 0.00231754, Final residual = 1.4614e-05, No Iterations 8
smoothSolver:  Solving for k, Initial residual = 0.0380206, Final residual = 0.000256084, No Iterations 10
smoothSolver:  Solving for f, Initial residual = 0.009021, Final residual = 5.9763e-05, No Iterations 8
bounding f, min: -0.179059 max: 0.957001 average: 0.261008
smoothSolver:  Solving for phit, Initial residual = 0.0205156, Final residual = 0.000193049, No Iterations 8
bounding phit, min: 0 max: 1.70075 average: 0.444455
ExecutionTime = 89.11 s  ClockTime = 89 s

Time = 61

smoothSolver:  Solving for Ux, Initial residual = 0.00535912, Final residual = 3.73872e-05, No Iterations 11
smoothSolver:  Solving for Uy, Initial residual = 0.0362527, Final residual = 0.000256512, No Iterations 10
GAMG:  Solving for p, Initial residual = 0.0685583, Final residual = 0.000683436, No Iterations 136
time step continuity errors : sum local = 9.74824e-05, global = -1.12186e-05, cumulative = 0.000933376
smoothSolver:  Solving for epsilon, Initial residual = 0.0023043, Final residual = 1.38485e-05, No Iterations 8
smoothSolver:  Solving for k, Initial residual = 0.0379667, Final residual = 0.000252534, No Iterations 10
smoothSolver:  Solving for f, Initial residual = 0.00920212, Final residual = 6.27854e-05, No Iterations 8
bounding f, min: -0.179825 max: 0.95261 average: 0.259244
smoothSolver:  Solving for phit, Initial residual = 0.0196504, Final residual = 0.000177414, No Iterations 8
bounding phit, min: 0 max: 1.70751 average: 0.444434
ExecutionTime = 89.82 s  ClockTime = 90 s

Time = 62

smoothSolver:  Solving for Ux, Initial residual = 0.00520523, Final residual = 3.65604e-05, No Iterations 11
smoothSolver:  Solving for Uy, Initial residual = 0.0351041, Final residual = 0.00025635, No Iterations 10
GAMG:  Solving for p, Initial residual = 0.0684757, Final residual = 0.000680492, No Iterations 140
time step continuity errors : sum local = 9.08795e-05, global = -1.01882e-05, cumulative = 0.000923188
smoothSolver:  Solving for epsilon, Initial residual = 0.00228028, Final residual = 2.20454e-05, No Iterations 7
smoothSolver:  Solving for k, Initial residual = 0.0379175, Final residual = 0.000247977, No Iterations 10
smoothSolver:  Solving for f, Initial residual = 0.00946058, Final residual = 6.59835e-05, No Iterations 8
bounding f, min: -0.180547 max: 0.947205 average: 0.257504
smoothSolver:  Solving for phit, Initial residual = 0.018804, Final residual = 0.000165087, No Iterations 8
bounding phit, min: 0 max: 1.71023 average: 0.444415
ExecutionTime = 90.54 s  ClockTime = 90 s

Time = 63

smoothSolver:  Solving for Ux, Initial residual = 0.00506124, Final residual = 3.58152e-05, No Iterations 11
smoothSolver:  Solving for Uy, Initial residual = 0.0336598, Final residual = 0.000255486, No Iterations 10
GAMG:  Solving for p, Initial residual = 0.0689532, Final residual = 0.000688302, No Iterations 146
time step continuity errors : sum local = 8.61518e-05, global = -9.95147e-06, cumulative = 0.000913236
smoothSolver:  Solving for epsilon, Initial residual = 0.0022318, Final residual = 2.06292e-05, No Iterations 7
smoothSolver:  Solving for k, Initial residual = 0.0378316, Final residual = 0.000244228, No Iterations 10
smoothSolver:  Solving for f, Initial residual = 0.00960616, Final residual = 6.82209e-05, No Iterations 8
bounding f, min: -0.181229 max: 0.94185 average: 0.255807
smoothSolver:  Solving for phit, Initial residual = 0.0181148, Final residual = 0.000154423, No Iterations 8
bounding phit, min: 0 max: 1.71053 average: 0.444288
ExecutionTime = 91.28 s  ClockTime = 91 s

Time = 64

smoothSolver:  Solving for Ux, Initial residual = 0.00492296, Final residual = 3.51248e-05, No Iterations 11
smoothSolver:  Solving for Uy, Initial residual = 0.0326517, Final residual = 0.000253706, No Iterations 10
GAMG:  Solving for p, Initial residual = 0.0678255, Final residual = 0.000677017, No Iterations 154
time step continuity errors : sum local = 7.96674e-05, global = -9.54418e-06, cumulative = 0.000903692
smoothSolver:  Solving for epsilon, Initial residual = 0.00217718, Final residual = 1.95186e-05, No Iterations 7
smoothSolver:  Solving for k, Initial residual = 0.037624, Final residual = 0.000240656, No Iterations 10
smoothSolver:  Solving for f, Initial residual = 0.00968715, Final residual = 6.96566e-05, No Iterations 8
bounding f, min: -0.181871 max: 0.937159 average: 0.254167
smoothSolver:  Solving for phit, Initial residual = 0.0176628, Final residual = 0.000148558, No Iterations 8
bounding phit, min: 0 max: 1.7228 average: 0.444119
ExecutionTime = 92.08 s  ClockTime = 92 s

Time = 65

smoothSolver:  Solving for Ux, Initial residual = 0.00480527, Final residual = 3.44584e-05, No Iterations 11
smoothSolver:  Solving for Uy, Initial residual = 0.0317255, Final residual = 0.000252743, No Iterations 10
GAMG:  Solving for p, Initial residual = 0.0681552, Final residual = 0.000679171, No Iterations 158
time step continuity errors : sum local = 7.48195e-05, global = -9.08141e-06, cumulative = 0.000894611
smoothSolver:  Solving for epsilon, Initial residual = 0.00214876, Final residual = 1.84183e-05, No Iterations 7
smoothSolver:  Solving for k, Initial residual = 0.0374924, Final residual = 0.000234667, No Iterations 10
smoothSolver:  Solving for f, Initial residual = 0.00960787, Final residual = 7.04592e-05, No Iterations 8
bounding f, min: -0.182476 max: 0.932269 average: 0.25258
smoothSolver:  Solving for phit, Initial residual = 0.0171767, Final residual = 0.000140888, No Iterations 8
bounding phit, min: 0 max: 1.73948 average: 0.443947
ExecutionTime = 92.89 s  ClockTime = 93 s

Time = 66

smoothSolver:  Solving for Ux, Initial residual = 0.00468107, Final residual = 3.38127e-05, No Iterations 11
smoothSolver:  Solving for Uy, Initial residual = 0.0307703, Final residual = 0.000251327, No Iterations 10
GAMG:  Solving for p, Initial residual = 0.0678057, Final residual = 0.000673828, No Iterations 164
time step continuity errors : sum local = 6.95448e-05, global = -8.38877e-06, cumulative = 0.000886222
smoothSolver:  Solving for epsilon, Initial residual = 0.0021596, Final residual = 1.74291e-05, No Iterations 7
smoothSolver:  Solving for k, Initial residual = 0.0373405, Final residual = 0.000366061, No Iterations 9
smoothSolver:  Solving for f, Initial residual = 0.00952456, Final residual = 7.09401e-05, No Iterations 8
bounding f, min: -0.183046 max: 0.928281 average: 0.25101
smoothSolver:  Solving for phit, Initial residual = 0.0165641, Final residual = 0.000133278, No Iterations 8
bounding phit, min: 0 max: 1.75109 average: 0.443732
ExecutionTime = 93.72 s  ClockTime = 93 s

Time = 67

smoothSolver:  Solving for Ux, Initial residual = 0.0045724, Final residual = 3.31568e-05, No Iterations 11
smoothSolver:  Solving for Uy, Initial residual = 0.0301207, Final residual = 0.000249935, No Iterations 10
GAMG:  Solving for p, Initial residual = 0.0680019, Final residual = 0.000677848, No Iterations 164
time step continuity errors : sum local = 6.55688e-05, global = -7.65568e-06, cumulative = 0.000878566
smoothSolver:  Solving for epsilon, Initial residual = 0.00218579, Final residual = 1.61132e-05, No Iterations 7
smoothSolver:  Solving for k, Initial residual = 0.0371164, Final residual = 0.000357237, No Iterations 9
smoothSolver:  Solving for f, Initial residual = 0.00972015, Final residual = 7.19706e-05, No Iterations 8
bounding f, min: -0.183584 max: 0.928291 average: 0.24945
smoothSolver:  Solving for phit, Initial residual = 0.016204, Final residual = 0.000128176, No Iterations 8
bounding phit, min: 0 max: 1.78522 average: 0.443495
ExecutionTime = 94.56 s  ClockTime = 94 s

Time = 68

smoothSolver:  Solving for Ux, Initial residual = 0.0044682, Final residual = 3.25751e-05, No Iterations 11
smoothSolver:  Solving for Uy, Initial residual = 0.0293648, Final residual = 0.000248203, No Iterations 10
GAMG:  Solving for p, Initial residual = 0.0688323, Final residual = 0.000686539, No Iterations 160
time step continuity errors : sum local = 6.26551e-05, global = -7.13474e-06, cumulative = 0.000871432
smoothSolver:  Solving for epsilon, Initial residual = 0.00220671, Final residual = 1.51601e-05, No Iterations 7
smoothSolver:  Solving for k, Initial residual = 0.0368502, Final residual = 0.000345424, No Iterations 9
smoothSolver:  Solving for f, Initial residual = 0.00995176, Final residual = 7.37884e-05, No Iterations 8
bounding f, min: -0.18409 max: 0.9283 average: 0.247907
smoothSolver:  Solving for phit, Initial residual = 0.0156974, Final residual = 0.000120932, No Iterations 8
bounding phit, min: 0 max: 1.80546 average: 0.443275
ExecutionTime = 95.37 s  ClockTime = 95 s

Time = 69

smoothSolver:  Solving for Ux, Initial residual = 0.00435639, Final residual = 3.20211e-05, No Iterations 11
smoothSolver:  Solving for Uy, Initial residual = 0.0285423, Final residual = 0.000245831, No Iterations 10
GAMG:  Solving for p, Initial residual = 0.0645253, Final residual = 0.000644279, No Iterations 168
time step continuity errors : sum local = 5.83467e-05, global = -6.55325e-06, cumulative = 0.000864878
smoothSolver:  Solving for epsilon, Initial residual = 0.00219636, Final residual = 1.42618e-05, No Iterations 7
smoothSolver:  Solving for k, Initial residual = 0.0364106, Final residual = 0.000334471, No Iterations 9
smoothSolver:  Solving for f, Initial residual = 0.0101913, Final residual = 7.56339e-05, No Iterations 8
bounding f, min: -0.184568 max: 0.928307 average: 0.246385
smoothSolver:  Solving for phit, Initial residual = 0.0153586, Final residual = 0.000118701, No Iterations 8
bounding phit, min: 0 max: 1.81899 average: 0.443024
ExecutionTime = 96.2 s  ClockTime = 96 s

Time = 70

smoothSolver:  Solving for Ux, Initial residual = 0.00426209, Final residual = 3.14987e-05, No Iterations 11
smoothSolver:  Solving for Uy, Initial residual = 0.0280755, Final residual = 0.000243882, No Iterations 10
GAMG:  Solving for p, Initial residual = 0.0607662, Final residual = 0.000605659, No Iterations 172
time step continuity errors : sum local = 5.44257e-05, global = -6.00647e-06, cumulative = 0.000858872
smoothSolver:  Solving for epsilon, Initial residual = 0.00216209, Final residual = 1.32231e-05, No Iterations 7
smoothSolver:  Solving for k, Initial residual = 0.0360253, Final residual = 0.000321039, No Iterations 9
smoothSolver:  Solving for f, Initial residual = 0.010384, Final residual = 7.73561e-05, No Iterations 8
bounding f, min: -0.185018 max: 0.928313 average: 0.244919
smoothSolver:  Solving for phit, Initial residual = 0.0149746, Final residual = 0.000115249, No Iterations 8
bounding phit, min: 0 max: 1.83586 average: 0.442757
ExecutionTime = 97.06 s  ClockTime = 97 s

Time = 71

smoothSolver:  Solving for Ux, Initial residual = 0.00416606, Final residual = 3.10714e-05, No Iterations 11
smoothSolver:  Solving for Uy, Initial residual = 0.027504, Final residual = 0.000241606, No Iterations 10
GAMG:  Solving for p, Initial residual = 0.0581137, Final residual = 0.000576801, No Iterations 170
time step continuity errors : sum local = 5.15418e-05, global = -5.70232e-06, cumulative = 0.00085317
smoothSolver:  Solving for epsilon, Initial residual = 0.00214521, Final residual = 2.12528e-05, No Iterations 6
smoothSolver:  Solving for k, Initial residual = 0.0355757, Final residual = 0.000313167, No Iterations 9
smoothSolver:  Solving for f, Initial residual = 0.0104009, Final residual = 7.88079e-05, No Iterations 8
bounding f, min: -0.185444 max: 0.928319 average: 0.243509
smoothSolver:  Solving for phit, Initial residual = 0.0147606, Final residual = 0.000113907, No Iterations 8
bounding phit, min: 0 max: 1.85623 average: 0.442509
ExecutionTime = 97.91 s  ClockTime = 98 s

Time = 72

smoothSolver:  Solving for Ux, Initial residual = 0.00408488, Final residual = 3.06758e-05, No Iterations 11
smoothSolver:  Solving for Uy, Initial residual = 0.0267875, Final residual = 0.000239047, No Iterations 10
GAMG:  Solving for p, Initial residual = 0.054862, Final residual = 0.00054625, No Iterations 174
time step continuity errors : sum local = 4.86585e-05, global = -5.42344e-06, cumulative = 0.000847746
smoothSolver:  Solving for epsilon, Initial residual = 0.00213358, Final residual = 2.01695e-05, No Iterations 6
smoothSolver:  Solving for k, Initial residual = 0.0350158, Final residual = 0.000295875, No Iterations 9
smoothSolver:  Solving for f, Initial residual = 0.0104566, Final residual = 8.01513e-05, No Iterations 8
bounding f, min: -0.185847 max: 0.928324 average: 0.242124
smoothSolver:  Solving for phit, Initial residual = 0.0143727, Final residual = 0.000111329, No Iterations 8
bounding phit, min: 0 max: 1.87388 average: 0.442268
ExecutionTime = 98.78 s  ClockTime = 99 s

Time = 73

[...]
GAMG:  Solving for p, Initial residual = 1.436e-05, Final residual = 9.97931e-07, No Iterations 33
time step continuity errors : sum local = 7.06333e-08, global = 1.56879e-09, cumulative = 0.000875395
smoothSolver:  Solving for epsilon, Initial residual = 5.08906e-06, Final residual = 3.57695e-07, No Iterations 2
smoothSolver:  Solving for k, Initial residual = 3.96542e-05, Final residual = 5.98146e-07, No Iterations 6
smoothSolver:  Solving for f, Initial residual = 0.000507358, Final residual = 3.50978e-06, No Iterations 7
bounding f, min: -0.269493 max: 0.928424 average: 0.210533
smoothSolver:  Solving for phit, Initial residual = 0.00041771, Final residual = 1.48173e-06, No Iterations 3
bounding phit, min: 0 max: 2.03983 average: 0.400716
ExecutionTime = 854.67 s  ClockTime = 855 s

Time = 1983

smoothSolver:  Solving for Ux, Initial residual = 3.63949e-06, Final residual = 8.25147e-07, No Iterations 2
smoothSolver:  Solving for Uy, Initial residual = 1.09957e-05, Final residual = 8.90816e-07, No Iterations 3
GAMG:  Solving for p, Initial residual = 1.51017e-05, Final residual = 9.81237e-07, No Iterations 33
time step continuity errors : sum local = 6.94516e-08, global = -1.77831e-09, cumulative = 0.000875393
smoothSolver:  Solving for epsilon, Initial residual = 4.79282e-06, Final residual = 9.49053e-07, No Iterations 1
smoothSolver:  Solving for k, Initial residual = 3.86661e-05, Final residual = 5.795e-07, No Iterations 6
smoothSolver:  Solving for f, Initial residual = 0.000506976, Final residual = 3.50492e-06, No Iterations 7
bounding f, min: -0.269493 max: 0.928424 average: 0.210533
smoothSolver:  Solving for phit, Initial residual = 0.000407036, Final residual = 1.59302e-06, No Iterations 3
bounding phit, min: 0 max: 2.03551 average: 0.400715
ExecutionTime = 854.85 s  ClockTime = 855 s

Time = 1984

smoothSolver:  Solving for Ux, Initial residual = 3.64209e-06, Final residual = 8.03717e-07, No Iterations 2
smoothSolver:  Solving for Uy, Initial residual = 1.14036e-05, Final residual = 9.45487e-07, No Iterations 3
GAMG:  Solving for p, Initial residual = 1.37797e-05, Final residual = 9.87691e-07, No Iterations 37
time step continuity errors : sum local = 6.99085e-08, global = 2.11205e-09, cumulative = 0.000875395
smoothSolver:  Solving for epsilon, Initial residual = 4.98651e-06, Final residual = 9.51268e-07, No Iterations 1
smoothSolver:  Solving for k, Initial residual = 3.85691e-05, Final residual = 5.80301e-07, No Iterations 6
smoothSolver:  Solving for f, Initial residual = 0.000507065, Final residual = 3.51116e-06, No Iterations 7
bounding f, min: -0.269493 max: 0.928424 average: 0.210533
smoothSolver:  Solving for phit, Initial residual = 0.000400916, Final residual = 1.36379e-06, No Iterations 3
bounding phit, min: 0 max: 2.03932 average: 0.400717
ExecutionTime = 855.06 s  ClockTime = 855 s

Time = 1985

smoothSolver:  Solving for Ux, Initial residual = 3.68296e-06, Final residual = 8.10028e-07, No Iterations 2
smoothSolver:  Solving for Uy, Initial residual = 1.13944e-05, Final residual = 9.16643e-07, No Iterations 3
GAMG:  Solving for p, Initial residual = 1.461e-05, Final residual = 9.83377e-07, No Iterations 34
time step continuity errors : sum local = 6.96031e-08, global = 1.48089e-09, cumulative = 0.000875397
smoothSolver:  Solving for epsilon, Initial residual = 5.11584e-06, Final residual = 3.43169e-07, No Iterations 2
smoothSolver:  Solving for k, Initial residual = 3.94658e-05, Final residual = 5.97262e-07, No Iterations 6
smoothSolver:  Solving for f, Initial residual = 0.000507246, Final residual = 3.51297e-06, No Iterations 7
bounding f, min: -0.269493 max: 0.928424 average: 0.210533
smoothSolver:  Solving for phit, Initial residual = 0.000400872, Final residual = 1.57593e-06, No Iterations 3
bounding phit, min: 0 max: 2.03622 average: 0.400715
ExecutionTime = 855.25 s  ClockTime = 855 s

Time = 1986

smoothSolver:  Solving for Ux, Initial residual = 3.63715e-06, Final residual = 8.13562e-07, No Iterations 2
smoothSolver:  Solving for Uy, Initial residual = 1.12634e-05, Final residual = 8.96848e-07, No Iterations 3
GAMG:  Solving for p, Initial residual = 1.43333e-05, Final residual = 9.95552e-07, No Iterations 34
time step continuity errors : sum local = 7.04648e-08, global = 2.1681e-09, cumulative = 0.000875399
smoothSolver:  Solving for epsilon, Initial residual = 4.74245e-06, Final residual = 9.36214e-07, No Iterations 1
smoothSolver:  Solving for k, Initial residual = 3.84085e-05, Final residual = 5.78854e-07, No Iterations 6
smoothSolver:  Solving for f, Initial residual = 0.000507191, Final residual = 3.49702e-06, No Iterations 7
bounding f, min: -0.269493 max: 0.928424 average: 0.210533
smoothSolver:  Solving for phit, Initial residual = 0.000399454, Final residual = 1.45726e-06, No Iterations 3
bounding phit, min: 0 max: 2.03925 average: 0.400717
ExecutionTime = 855.44 s  ClockTime = 856 s

Time = 1987

smoothSolver:  Solving for Ux, Initial residual = 3.58171e-06, Final residual = 7.91814e-07, No Iterations 2
smoothSolver:  Solving for Uy, Initial residual = 1.09107e-05, Final residual = 8.99668e-07, No Iterations 3
GAMG:  Solving for p, Initial residual = 1.34564e-05, Final residual = 9.96179e-07, No Iterations 33
time step continuity errors : sum local = 7.05092e-08, global = -1.33551e-09, cumulative = 0.000875397
smoothSolver:  Solving for epsilon, Initial residual = 4.91339e-06, Final residual = 9.42678e-07, No Iterations 1
smoothSolver:  Solving for k, Initial residual = 3.8418e-05, Final residual = 5.69728e-07, No Iterations 6
smoothSolver:  Solving for f, Initial residual = 0.000506831, Final residual = 3.50633e-06, No Iterations 7
bounding f, min: -0.269493 max: 0.928424 average: 0.210533
smoothSolver:  Solving for phit, Initial residual = 0.000395337, Final residual = 1.44662e-06, No Iterations 3
bounding phit, min: 0 max: 2.03496 average: 0.400717
ExecutionTime = 855.63 s  ClockTime = 856 s

Time = 1988

smoothSolver:  Solving for Ux, Initial residual = 3.58415e-06, Final residual = 7.9445e-07, No Iterations 2
smoothSolver:  Solving for Uy, Initial residual = 1.05394e-05, Final residual = 8.81068e-07, No Iterations 3
GAMG:  Solving for p, Initial residual = 1.40775e-05, Final residual = 9.98245e-07, No Iterations 33
time step continuity errors : sum local = 7.06556e-08, global = 1.27294e-09, cumulative = 0.000875399
smoothSolver:  Solving for epsilon, Initial residual = 5.06282e-06, Final residual = 9.94869e-07, No Iterations 1
smoothSolver:  Solving for k, Initial residual = 3.89302e-05, Final residual = 5.88219e-07, No Iterations 6
smoothSolver:  Solving for f, Initial residual = 0.000507134, Final residual = 3.50628e-06, No Iterations 7
bounding f, min: -0.269493 max: 0.928424 average: 0.210533
smoothSolver:  Solving for phit, Initial residual = 0.000402542, Final residual = 1.44836e-06, No Iterations 3
bounding phit, min: 0 max: 2.03901 average: 0.400717
ExecutionTime = 855.83 s  ClockTime = 856 s

Time = 1989

smoothSolver:  Solving for Ux, Initial residual = 3.63423e-06, Final residual = 8.06848e-07, No Iterations 2
smoothSolver:  Solving for Uy, Initial residual = 1.05093e-05, Final residual = 8.65519e-07, No Iterations 3
GAMG:  Solving for p, Initial residual = 1.44615e-05, Final residual = 9.81677e-07, No Iterations 34
time step continuity errors : sum local = 6.94828e-08, global = 1.75901e-09, cumulative = 0.000875401
smoothSolver:  Solving for epsilon, Initial residual = 5.14214e-06, Final residual = 3.53829e-07, No Iterations 2
smoothSolver:  Solving for k, Initial residual = 3.92902e-05, Final residual = 6.00174e-07, No Iterations 6
smoothSolver:  Solving for f, Initial residual = 0.000507042, Final residual = 3.50985e-06, No Iterations 7
bounding f, min: -0.269493 max: 0.928424 average: 0.210533
smoothSolver:  Solving for phit, Initial residual = 0.000403199, Final residual = 1.59318e-06, No Iterations 3
bounding phit, min: 0 max: 2.03712 average: 0.400716
ExecutionTime = 856.02 s  ClockTime = 856 s

Time = 1990

smoothSolver:  Solving for Ux, Initial residual = 3.64666e-06, Final residual = 8.17746e-07, No Iterations 2
smoothSolver:  Solving for Uy, Initial residual = 1.08929e-05, Final residual = 8.75115e-07, No Iterations 3
GAMG:  Solving for p, Initial residual = 1.46277e-05, Final residual = 9.8909e-07, No Iterations 33
time step continuity errors : sum local = 7.00075e-08, global = -1.40997e-09, cumulative = 0.000875399
smoothSolver:  Solving for epsilon, Initial residual = 4.7451e-06, Final residual = 9.3417e-07, No Iterations 1
smoothSolver:  Solving for k, Initial residual = 3.82644e-05, Final residual = 5.68627e-07, No Iterations 6
smoothSolver:  Solving for f, Initial residual = 0.000507017, Final residual = 3.49751e-06, No Iterations 7
bounding f, min: -0.269493 max: 0.928424 average: 0.210533
smoothSolver:  Solving for phit, Initial residual = 0.000398654, Final residual = 1.46706e-06, No Iterations 3
bounding phit, min: 0 max: 2.03988 average: 0.400717
ExecutionTime = 856.22 s  ClockTime = 856 s

Time = 1991

smoothSolver:  Solving for Ux, Initial residual = 3.60456e-06, Final residual = 7.85005e-07, No Iterations 2
smoothSolver:  Solving for Uy, Initial residual = 1.1104e-05, Final residual = 9.26109e-07, No Iterations 3
GAMG:  Solving for p, Initial residual = 1.35205e-05, Final residual = 9.86617e-07, No Iterations 32
time step continuity errors : sum local = 6.98323e-08, global = -1.26112e-09, cumulative = 0.000875398
smoothSolver:  Solving for epsilon, Initial residual = 4.96026e-06, Final residual = 9.45717e-07, No Iterations 1
smoothSolver:  Solving for k, Initial residual = 3.81771e-05, Final residual = 5.58868e-07, No Iterations 6
smoothSolver:  Solving for f, Initial residual = 0.00050684, Final residual = 3.5041e-06, No Iterations 7
bounding f, min: -0.269493 max: 0.928424 average: 0.210533
smoothSolver:  Solving for phit, Initial residual = 0.0003959, Final residual = 1.47537e-06, No Iterations 3
bounding phit, min: 0 max: 2.03501 average: 0.400717
ExecutionTime = 856.42 s  ClockTime = 857 s

Time = 1992

smoothSolver:  Solving for Ux, Initial residual = 3.61186e-06, Final residual = 7.88753e-07, No Iterations 2
smoothSolver:  Solving for Uy, Initial residual = 1.10378e-05, Final residual = 8.96049e-07, No Iterations 3
GAMG:  Solving for p, Initial residual = 1.42167e-05, Final residual = 9.89252e-07, No Iterations 34
time step continuity errors : sum local = 7.0019e-08, global = -1.27865e-09, cumulative = 0.000875397
smoothSolver:  Solving for epsilon, Initial residual = 5.02889e-06, Final residual = 9.89299e-07, No Iterations 1
smoothSolver:  Solving for k, Initial residual = 3.85625e-05, Final residual = 5.79915e-07, No Iterations 6
smoothSolver:  Solving for f, Initial residual = 0.000507346, Final residual = 3.51011e-06, No Iterations 7
bounding f, min: -0.269493 max: 0.928424 average: 0.210533
smoothSolver:  Solving for phit, Initial residual = 0.000403009, Final residual = 1.42754e-06, No Iterations 3
bounding phit, min: 0 max: 2.03899 average: 0.400718
ExecutionTime = 856.62 s  ClockTime = 857 s

Time = 1993

smoothSolver:  Solving for Ux, Initial residual = 3.60423e-06, Final residual = 7.95508e-07, No Iterations 2
smoothSolver:  Solving for Uy, Initial residual = 1.11006e-05, Final residual = 8.88354e-07, No Iterations 3
GAMG:  Solving for p, Initial residual = 1.44594e-05, Final residual = 9.99358e-07, No Iterations 36
time step continuity errors : sum local = 7.07342e-08, global = -2.15244e-09, cumulative = 0.000875394
smoothSolver:  Solving for epsilon, Initial residual = 5.0569e-06, Final residual = 3.49907e-07, No Iterations 2
smoothSolver:  Solving for k, Initial residual = 3.93147e-05, Final residual = 5.93901e-07, No Iterations 6
smoothSolver:  Solving for f, Initial residual = 0.000507221, Final residual = 3.51344e-06, No Iterations 7
bounding f, min: -0.269493 max: 0.928424 average: 0.210533
smoothSolver:  Solving for phit, Initial residual = 0.000408038, Final residual = 1.60013e-06, No Iterations 3
bounding phit, min: 0 max: 2.03684 average: 0.400716
ExecutionTime = 856.83 s  ClockTime = 857 s

Time = 1994

smoothSolver:  Solving for Ux, Initial residual = 3.59557e-06, Final residual = 8.0959e-07, No Iterations 2
smoothSolver:  Solving for Uy, Initial residual = 1.10847e-05, Final residual = 8.69813e-07, No Iterations 3
GAMG:  Solving for p, Initial residual = 1.45283e-05, Final residual = 9.87484e-07, No Iterations 34
time step continuity errors : sum local = 6.98937e-08, global = -1.32741e-09, cumulative = 0.000875393
smoothSolver:  Solving for epsilon, Initial residual = 4.72677e-06, Final residual = 9.31552e-07, No Iterations 1
smoothSolver:  Solving for k, Initial residual = 3.85454e-05, Final residual = 5.68009e-07, No Iterations 6
smoothSolver:  Solving for f, Initial residual = 0.000506826, Final residual = 3.49835e-06, No Iterations 7
bounding f, min: -0.269493 max: 0.928424 average: 0.210533
smoothSolver:  Solving for phit, Initial residual = 0.000401728, Final residual = 1.43965e-06, No Iterations 3
bounding phit, min: 0 max: 2.0397 average: 0.400717
ExecutionTime = 857.04 s  ClockTime = 857 s

Time = 1995

smoothSolver:  Solving for Ux, Initial residual = 3.58634e-06, Final residual = 7.82741e-07, No Iterations 2
smoothSolver:  Solving for Uy, Initial residual = 1.10076e-05, Final residual = 9.121e-07, No Iterations 3
GAMG:  Solving for p, Initial residual = 1.33423e-05, Final residual = 9.7739e-07, No Iterations 34
time step continuity errors : sum local = 6.91791e-08, global = -1.35859e-09, cumulative = 0.000875392
smoothSolver:  Solving for epsilon, Initial residual = 4.94362e-06, Final residual = 9.44543e-07, No Iterations 1
smoothSolver:  Solving for k, Initial residual = 3.82131e-05, Final residual = 5.60204e-07, No Iterations 6
smoothSolver:  Solving for f, Initial residual = 0.000506725, Final residual = 3.50195e-06, No Iterations 7
bounding f, min: -0.269493 max: 0.928424 average: 0.210533
smoothSolver:  Solving for phit, Initial residual = 0.000398127, Final residual = 1.48016e-06, No Iterations 3
bounding phit, min: 0 max: 2.03518 average: 0.400717
ExecutionTime = 857.23 s  ClockTime = 857 s

Time = 1996

smoothSolver:  Solving for Ux, Initial residual = 3.59137e-06, Final residual = 7.91655e-07, No Iterations 2
smoothSolver:  Solving for Uy, Initial residual = 1.06576e-05, Final residual = 8.78228e-07, No Iterations 3
GAMG:  Solving for p, Initial residual = 1.38804e-05, Final residual = 9.87334e-07, No Iterations 33
time step continuity errors : sum local = 6.98832e-08, global = 1.17389e-09, cumulative = 0.000875393
smoothSolver:  Solving for epsilon, Initial residual = 5.0129e-06, Final residual = 9.86889e-07, No Iterations 1
smoothSolver:  Solving for k, Initial residual = 3.86846e-05, Final residual = 5.78013e-07, No Iterations 6
smoothSolver:  Solving for f, Initial residual = 0.000507175, Final residual = 3.5081e-06, No Iterations 7
bounding f, min: -0.269493 max: 0.928424 average: 0.210533
smoothSolver:  Solving for phit, Initial residual = 0.000404929, Final residual = 1.39129e-06, No Iterations 3
bounding phit, min: 0 max: 2.03901 average: 0.400717
ExecutionTime = 857.43 s  ClockTime = 858 s

Time = 1997

smoothSolver:  Solving for Ux, Initial residual = 3.62091e-06, Final residual = 7.97431e-07, No Iterations 2
smoothSolver:  Solving for Uy, Initial residual = 1.06288e-05, Final residual = 8.76275e-07, No Iterations 3
GAMG:  Solving for p, Initial residual = 1.4268e-05, Final residual = 9.95711e-07, No Iterations 30
time step continuity errors : sum local = 7.04759e-08, global = -1.65141e-09, cumulative = 0.000875391
smoothSolver:  Solving for epsilon, Initial residual = 5.07358e-06, Final residual = 3.53251e-07, No Iterations 2
smoothSolver:  Solving for k, Initial residual = 3.93869e-05, Final residual = 5.95189e-07, No Iterations 6
smoothSolver:  Solving for f, Initial residual = 0.000507039, Final residual = 3.51006e-06, No Iterations 7
bounding f, min: -0.269493 max: 0.928424 average: 0.210533
smoothSolver:  Solving for phit, Initial residual = 0.000407246, Final residual = 1.58916e-06, No Iterations 3
bounding phit, min: 0 max: 2.03652 average: 0.400716
ExecutionTime = 857.62 s  ClockTime = 858 s

Time = 1998

smoothSolver:  Solving for Ux, Initial residual = 3.59004e-06, Final residual = 8.07137e-07, No Iterations 2
smoothSolver:  Solving for Uy, Initial residual = 1.08052e-05, Final residual = 8.71862e-07, No Iterations 3
GAMG:  Solving for p, Initial residual = 1.4272e-05, Final residual = 9.78591e-07, No Iterations 30
time step continuity errors : sum local = 6.92642e-08, global = -1.59554e-09, cumulative = 0.00087539
smoothSolver:  Solving for epsilon, Initial residual = 4.71039e-06, Final residual = 9.29988e-07, No Iterations 1
smoothSolver:  Solving for k, Initial residual = 3.83302e-05, Final residual = 5.73626e-07, No Iterations 6
smoothSolver:  Solving for f, Initial residual = 0.000506807, Final residual = 3.49729e-06, No Iterations 7
bounding f, min: -0.269493 max: 0.928424 average: 0.210533
smoothSolver:  Solving for phit, Initial residual = 0.000403419, Final residual = 1.44116e-06, No Iterations 3
bounding phit, min: 0 max: 2.03964 average: 0.400717
ExecutionTime = 857.81 s  ClockTime = 858 s

Time = 1999

smoothSolver:  Solving for Ux, Initial residual = 3.55692e-06, Final residual = 7.86113e-07, No Iterations 2
smoothSolver:  Solving for Uy, Initial residual = 1.08698e-05, Final residual = 9.09014e-07, No Iterations 3
GAMG:  Solving for p, Initial residual = 1.34889e-05, Final residual = 9.9019e-07, No Iterations 31
time step continuity errors : sum local = 7.00851e-08, global = 1.2185e-09, cumulative = 0.000875391
smoothSolver:  Solving for epsilon, Initial residual = 4.91207e-06, Final residual = 9.41206e-07, No Iterations 1
smoothSolver:  Solving for k, Initial residual = 3.83471e-05, Final residual = 5.61086e-07, No Iterations 6
smoothSolver:  Solving for f, Initial residual = 0.00050676, Final residual = 3.50228e-06, No Iterations 7
bounding f, min: -0.269493 max: 0.928424 average: 0.210533
smoothSolver:  Solving for phit, Initial residual = 0.000399033, Final residual = 1.46615e-06, No Iterations 3
bounding phit, min: 0 max: 2.03511 average: 0.400717
ExecutionTime = 858 s  ClockTime = 858 s

Time = 2000

smoothSolver:  Solving for Ux, Initial residual = 3.57065e-06, Final residual = 7.88512e-07, No Iterations 2
smoothSolver:  Solving for Uy, Initial residual = 1.0849e-05, Final residual = 8.8517e-07, No Iterations 3
GAMG:  Solving for p, Initial residual = 1.3687e-05, Final residual = 9.93742e-07, No Iterations 31
time step continuity errors : sum local = 7.03368e-08, global = 1.46847e-09, cumulative = 0.000875392
smoothSolver:  Solving for epsilon, Initial residual = 5.0502e-06, Final residual = 9.98465e-07, No Iterations 1
smoothSolver:  Solving for k, Initial residual = 3.87388e-05, Final residual = 5.81794e-07, No Iterations 6
smoothSolver:  Solving for f, Initial residual = 0.000507039, Final residual = 3.50841e-06, No Iterations 7
bounding f, min: -0.269493 max: 0.928424 average: 0.210533
smoothSolver:  Solving for phit, Initial residual = 0.000406175, Final residual = 1.41123e-06, No Iterations 3
bounding phit, min: 0 max: 2.03895 average: 0.400717
ExecutionTime = 858.43 s  ClockTime = 859 s

wallShearStress wallShearStress write:
    writing field wallShearStress
    min/max(lowerWall) = (-0.0239541 -0.000335432 -1.68184e-19), (0.000553501 0.000604837 1.56616e-19)
    min/max(upperWall) = (-0.0239541 -1.92753e-06 -1.49137e-22), (-0.000630028 0.000335433 1.7853e-22)
    functionObjects::turbulenceFields turbulenceFields1 writing field: turbulenceProperties:R

    functionObjects::components components1 writing field: Ux
    functionObjects::components components1 writing field: Uy
    functionObjects::components components1 writing field: Uz
End

