/*---------------------------------------------------------------------------*\
| =========                 |                                                 |
| \\      /  F ield         | OpenFOAM: The Open Source CFD Toolbox           |
|  \\    /   O peration     | Version:  2412                                  |
|   \\  /    A nd           | Website:  www.openfoam.com                      |
|    \\/     M anipulation  |                                                 |
\*---------------------------------------------------------------------------*/
Build  : _8dbc61e11c-20241220 OPENFOAM=2412 version=v2412
Arch   : "LSB;label=32;scalar=64"
Exec   : simpleFoam
Date   : Jun 09 2025
Time   : 14:46:30
Host   : WORKHORSE
PID    : 4189296
I/O    : uncollated
Case   : /home/rokot/OpenFOAM/OpenFOAM-v2412/rokot-24/Diffuser/kEpsilonPhitF
nProcs : 1
trapFpe: Floating point exception trapping enabled (FOAM_SIGFPE).
fileModificationChecking : Monitoring run-time modified files using timeStampMaster (fileModificationSkew 5, maxFileModificationPolls 20)
allowSystemOperations : Allowing user-supplied system call operations

// * * * * * * * * * * * * * * * * * * * * * * * * * * * * * * * * * * * * * //
Create time

Create mesh for time = 0


SIMPLE: convergence criteria
    field p	 tolerance 1e-05
    field U	 tolerance 1e-05
    field "(k|epsilon|omega|f|v2|nuTilda)"	 tolerance 1e-05

Reading field p

Reading field U

Reading/calculating face flux field phi

Selecting incompressible transport model Newtonian
Selecting turbulence model type RAS
Selecting RAS turbulence model kEpsilonPhitF
bounding phit, min: 0 max: 0.66 average: 0.66
bounding f, min: 0 max: 1 average: 1
RAS
{
    RASModel        kEpsilonPhitF;
    turbulence      on;
    printCoeffs     on;
    includeNu       true;
    Cmu             0.22;
    Ceps1a          1.4;
    Ceps1b          1;
    Ceps1c          0.05;
    Ceps2           1.9;
    Cf1             1.4;
    Cf2             0.3;
    CL              0.25;
    Ceta            110;
    CT              6;
    sigmaK          1;
    sigmaEps        1.3;
    sigmaPhit       1;
}

No MRF models present

No finite volume options present

Starting time loop

wallShearStress wallShearStress:
    processing (2) wall patches:
        lowerWall
        upperWall

turbulenceFields turbulenceFields1: storing fields:
    turbulenceProperties:R

Sampled surface:
    lowerWall -> raw
        sampledPatch: lowerWall : patches:(lowerWall)
    upperWall -> raw
        sampledPatch: upperWall : patches:(upperWall)

Sampled surface:
    interface -> raw
        isoSurface: interface : isoMethod:cell regularise:full snap:1 field:Ux value:(0)

Sampled set:
    line -> raw

Sampled set:
    line -> raw

Sampled set:
    line -> raw

Sampled set:
    line -> raw

Sampled set:
    line -> raw

Sampled set:
    line -> raw

Sampled set:
    line -> raw

Sampled set:
    line -> raw

Sampled set:
    line -> raw

Sampled set:
    line -> raw

Sampled set:
    line -> raw

Sampled set:
    line -> raw

Sampled set:
    line -> raw

Sampled set:
    line -> raw

Sampled set:
    line -> raw

Sampled set:
    line -> raw

Sampled set:
    line -> raw

Sampled set:
    line -> raw

Sampled set:
    line -> raw

Sampled set:
    line -> raw

Sampled set:
    line -> raw

Sampled set:
    line -> raw

Sampled set:
    line -> raw

Sampled set:
    line -> raw

Time = 1

smoothSolver:  Solving for Ux, Initial residual = 1, Final residual = 0.00579523, No Iterations 3
smoothSolver:  Solving for Uy, Initial residual = 0.999982, Final residual = 0.00617803, No Iterations 3
GAMG:  Solving for p, Initial residual = 1, Final residual = 0.0413486, No Iterations 1000
time step continuity errors : sum local = 0.000169971, global = -7.20663e-05, cumulative = -7.20663e-05
smoothSolver:  Solving for epsilon, Initial residual = 0.16464, Final residual = 0.00111378, No Iterations 7
smoothSolver:  Solving for k, Initial residual = 1, Final residual = 0.00888109, No Iterations 7
smoothSolver:  Solving for f, Initial residual = 1, Final residual = 0.00609686, No Iterations 6
bounding f, min: 0 max: 0.999589 average: 0.930303
smoothSolver:  Solving for phit, Initial residual = 1, Final residual = 0.00600602, No Iterations 6
bounding phit, min: 0 max: 40.11 average: 3.13694
ExecutionTime = 6.49 s  ClockTime = 6 s

Time = 2

smoothSolver:  Solving for Ux, Initial residual = 0.0203043, Final residual = 0.000133478, No Iterations 11
smoothSolver:  Solving for Uy, Initial residual = 0.255752, Final residual = 0.00253013, No Iterations 8
GAMG:  Solving for p, Initial residual = 0.850622, Final residual = 0.00850274, No Iterations 469
time step continuity errors : sum local = 0.000235975, global = 7.04942e-05, cumulative = -1.57209e-06
smoothSolver:  Solving for epsilon, Initial residual = 0.224502, Final residual = 0.00149004, No Iterations 8
smoothSolver:  Solving for k, Initial residual = 0.922655, Final residual = 0.00623761, No Iterations 12
smoothSolver:  Solving for f, Initial residual = 0.172499, Final residual = 0.00114709, No Iterations 9
bounding f, min: 0 max: 10.0274 average: 0.911199
smoothSolver:  Solving for phit, Initial residual = 0.322298, Final residual = 0.00237384, No Iterations 7
bounding phit, min: 0 max: 33.5792 average: 2.9084
ExecutionTime = 7.51 s  ClockTime = 7 s

Time = 3

smoothSolver:  Solving for Ux, Initial residual = 0.124215, Final residual = 0.0011588, No Iterations 9
smoothSolver:  Solving for Uy, Initial residual = 0.0818775, Final residual = 0.000776272, No Iterations 10
GAMG:  Solving for p, Initial residual = 0.142275, Final residual = 0.00960005, No Iterations 1000
time step continuity errors : sum local = 0.00342342, global = -0.000100822, cumulative = -0.000102394
smoothSolver:  Solving for epsilon, Initial residual = 0.23822, Final residual = 0.00188373, No Iterations 12
smoothSolver:  Solving for k, Initial residual = 0.257199, Final residual = 0.00211096, No Iterations 12
smoothSolver:  Solving for f, Initial residual = 0.0991701, Final residual = 0.00090957, No Iterations 8
bounding f, min: -0.782818 max: 8.38957 average: 0.826009
smoothSolver:  Solving for phit, Initial residual = 0.0793145, Final residual = 0.00066366, No Iterations 9
bounding phit, min: 0 max: 29.9366 average: 2.71421
ExecutionTime = 9.58 s  ClockTime = 10 s

Time = 4

smoothSolver:  Solving for Ux, Initial residual = 0.0835968, Final residual = 0.000767793, No Iterations 10
smoothSolver:  Solving for Uy, Initial residual = 0.109351, Final residual = 0.00104122, No Iterations 11
GAMG:  Solving for p, Initial residual = 0.0764706, Final residual = 0.00538114, No Iterations 1000
time step continuity errors : sum local = 0.00373758, global = -0.000155227, cumulative = -0.000257622
smoothSolver:  Solving for epsilon, Initial residual = 0.0686696, Final residual = 0.000562995, No Iterations 10
smoothSolver:  Solving for k, Initial residual = 0.132414, Final residual = 0.00110117, No Iterations 12
smoothSolver:  Solving for f, Initial residual = 0.0726324, Final residual = 0.000662549, No Iterations 8
bounding f, min: -0.950585 max: 6.97394 average: 0.77627
smoothSolver:  Solving for phit, Initial residual = 0.0571393, Final residual = 0.000403518, No Iterations 10
bounding phit, min: 0 max: 27.0796 average: 2.46189
ExecutionTime = 11.66 s  ClockTime = 12 s

Time = 5

smoothSolver:  Solving for Ux, Initial residual = 0.0690121, Final residual = 0.000480838, No Iterations 11
smoothSolver:  Solving for Uy, Initial residual = 0.110235, Final residual = 0.000739966, No Iterations 12
GAMG:  Solving for p, Initial residual = 0.0398301, Final residual = 0.00435829, No Iterations 1000
time step continuity errors : sum local = 0.00366584, global = -0.000242354, cumulative = -0.000499976
smoothSolver:  Solving for epsilon, Initial residual = 0.099583, Final residual = 0.000945107, No Iterations 5
smoothSolver:  Solving for k, Initial residual = 0.0892813, Final residual = 0.000734695, No Iterations 12
smoothSolver:  Solving for f, Initial residual = 0.26095, Final residual = 0.00188486, No Iterations 8
bounding f, min: -0.975804 max: 5.86087 average: 0.779973
smoothSolver:  Solving for phit, Initial residual = 0.0452695, Final residual = 0.000388521, No Iterations 10
bounding phit, min: 0 max: 25.0881 average: 2.2789
ExecutionTime = 13.73 s  ClockTime = 14 s

Time = 6

smoothSolver:  Solving for Ux, Initial residual = 0.0594696, Final residual = 0.000497675, No Iterations 11
smoothSolver:  Solving for Uy, Initial residual = 0.0907979, Final residual = 0.000609911, No Iterations 12
GAMG:  Solving for p, Initial residual = 0.0212261, Final residual = 0.0031995, No Iterations 1000
time step continuity errors : sum local = 0.00384556, global = -0.000138791, cumulative = -0.000638767
smoothSolver:  Solving for epsilon, Initial residual = 0.040382, Final residual = 0.000338736, No Iterations 4
smoothSolver:  Solving for k, Initial residual = 0.0694845, Final residual = 0.000562885, No Iterations 12
smoothSolver:  Solving for f, Initial residual = 0.803178, Final residual = 0.00650926, No Iterations 7
bounding f, min: -1.01538 max: 7.80445 average: 0.98069
smoothSolver:  Solving for phit, Initial residual = 0.0372441, Final residual = 0.000236321, No Iterations 11
bounding phit, min: 0 max: 23.5246 average: 2.13374
ExecutionTime = 15.82 s  ClockTime = 16 s

Time = 7

smoothSolver:  Solving for Ux, Initial residual = 0.0551206, Final residual = 0.000546458, No Iterations 11
smoothSolver:  Solving for Uy, Initial residual = 0.092818, Final residual = 0.000656814, No Iterations 12
GAMG:  Solving for p, Initial residual = 0.0177161, Final residual = 0.00214761, No Iterations 1000
time step continuity errors : sum local = 0.0032735, global = -6.02349e-05, cumulative = -0.000699002
smoothSolver:  Solving for epsilon, Initial residual = 0.0200301, Final residual = 0.000160536, No Iterations 7
smoothSolver:  Solving for k, Initial residual = 0.0547008, Final residual = 0.000450685, No Iterations 12
smoothSolver:  Solving for f, Initial residual = 0.208967, Final residual = 0.00139786, No Iterations 8
bounding f, min: -1.06552 max: 7.39249 average: 1.09528
smoothSolver:  Solving for phit, Initial residual = 0.0317648, Final residual = 0.000221008, No Iterations 11
bounding phit, min: 0 max: 22.132 average: 2.00034
ExecutionTime = 17.89 s  ClockTime = 18 s

Time = 8

smoothSolver:  Solving for Ux, Initial residual = 0.0518079, Final residual = 0.000371152, No Iterations 12
smoothSolver:  Solving for Uy, Initial residual = 0.104677, Final residual = 0.000750967, No Iterations 12
GAMG:  Solving for p, Initial residual = 0.0149035, Final residual = 0.00316615, No Iterations 1000
time step continuity errors : sum local = 0.00462864, global = -0.000119386, cumulative = -0.000818387
smoothSolver:  Solving for epsilon, Initial residual = 0.00731417, Final residual = 6.86209e-05, No Iterations 10
smoothSolver:  Solving for k, Initial residual = 0.0444559, Final residual = 0.000364511, No Iterations 12
smoothSolver:  Solving for f, Initial residual = 0.127299, Final residual = 0.000834132, No Iterations 8
bounding f, min: -1.12947 max: 6.21906 average: 1.14134
smoothSolver:  Solving for phit, Initial residual = 0.0277121, Final residual = 0.000207404, No Iterations 11
bounding phit, min: 0 max: 20.8752 average: 1.88135
ExecutionTime = 19.96 s  ClockTime = 20 s

Time = 9

smoothSolver:  Solving for Ux, Initial residual = 0.0478166, Final residual = 0.000339151, No Iterations 12
smoothSolver:  Solving for Uy, Initial residual = 0.16652, Final residual = 0.00122444, No Iterations 12
GAMG:  Solving for p, Initial residual = 0.0152397, Final residual = 0.00456048, No Iterations 1000
time step continuity errors : sum local = 0.00586844, global = -0.000163613, cumulative = -0.000982
smoothSolver:  Solving for epsilon, Initial residual = 0.00824898, Final residual = 5.89792e-05, No Iterations 10
smoothSolver:  Solving for k, Initial residual = 0.0363774, Final residual = 0.000291838, No Iterations 12
smoothSolver:  Solving for f, Initial residual = 0.0843247, Final residual = 0.000672569, No Iterations 8
bounding f, min: -1.22188 max: 6.55594 average: 1.17927
smoothSolver:  Solving for phit, Initial residual = 0.0246095, Final residual = 0.000194235, No Iterations 11
bounding phit, min: 0 max: 19.7253 average: 1.77471
ExecutionTime = 22.02 s  ClockTime = 22 s

Time = 10

smoothSolver:  Solving for Ux, Initial residual = 0.0423059, Final residual = 0.000287734, No Iterations 12
smoothSolver:  Solving for Uy, Initial residual = 0.17689, Final residual = 0.00128192, No Iterations 12
GAMG:  Solving for p, Initial residual = 0.01927, Final residual = 0.0063834, No Iterations 1000
time step continuity errors : sum local = 0.00684943, global = -0.000186824, cumulative = -0.00116882
smoothSolver:  Solving for epsilon, Initial residual = 0.00729495, Final residual = 6.83935e-05, No Iterations 9
smoothSolver:  Solving for k, Initial residual = 0.0302317, Final residual = 0.000227035, No Iterations 12
smoothSolver:  Solving for f, Initial residual = 0.0709173, Final residual = 0.000691108, No Iterations 7
bounding f, min: -1.2701 max: 6.44487 average: 1.2124
smoothSolver:  Solving for phit, Initial residual = 0.0224339, Final residual = 0.000181928, No Iterations 11
bounding phit, min: 0 max: 18.6269 average: 1.68107
ExecutionTime = 24.1 s  ClockTime = 24 s

Time = 11

smoothSolver:  Solving for Ux, Initial residual = 0.0365703, Final residual = 0.000340571, No Iterations 11
smoothSolver:  Solving for Uy, Initial residual = 0.126128, Final residual = 0.000891126, No Iterations 12
GAMG:  Solving for p, Initial residual = 0.0236299, Final residual = 0.00825626, No Iterations 1000
time step continuity errors : sum local = 0.00690235, global = -0.000185043, cumulative = -0.00135387
smoothSolver:  Solving for epsilon, Initial residual = 0.0109662, Final residual = 0.000102713, No Iterations 8
smoothSolver:  Solving for k, Initial residual = 0.0252525, Final residual = 0.000170801, No Iterations 12
smoothSolver:  Solving for f, Initial residual = 0.0462346, Final residual = 0.000391802, No Iterations 7
bounding f, min: -1.30721 max: 6.13719 average: 1.22105
smoothSolver:  Solving for phit, Initial residual = 0.020857, Final residual = 0.0001701, No Iterations 11
bounding phit, min: 0 max: 17.5201 average: 1.59948
ExecutionTime = 26.16 s  ClockTime = 26 s

Time = 12

smoothSolver:  Solving for Ux, Initial residual = 0.0316589, Final residual = 0.00025593, No Iterations 11
smoothSolver:  Solving for Uy, Initial residual = 0.0797378, Final residual = 0.000548893, No Iterations 12
GAMG:  Solving for p, Initial residual = 0.0275464, Final residual = 0.00941152, No Iterations 1000
time step continuity errors : sum local = 0.00572846, global = -0.000156737, cumulative = -0.0015106
smoothSolver:  Solving for epsilon, Initial residual = 0.0132039, Final residual = 0.000130704, No Iterations 8
smoothSolver:  Solving for k, Initial residual = 0.0211742, Final residual = 0.000188893, No Iterations 11
smoothSolver:  Solving for f, Initial residual = 0.104187, Final residual = 0.000746927, No Iterations 7
bounding f, min: -1.34367 max: 5.64891 average: 1.19426
smoothSolver:  Solving for phit, Initial residual = 0.0195297, Final residual = 0.000160119, No Iterations 11
bounding phit, min: 0 max: 16.4257 average: 1.52829
ExecutionTime = 28.23 s  ClockTime = 28 s

Time = 13

smoothSolver:  Solving for Ux, Initial residual = 0.0276486, Final residual = 0.00019441, No Iterations 11
smoothSolver:  Solving for Uy, Initial residual = 0.0606079, Final residual = 0.000409523, No Iterations 12
GAMG:  Solving for p, Initial residual = 0.0310639, Final residual = 0.00934912, No Iterations 1000
time step continuity errors : sum local = 0.00373342, global = -0.000104566, cumulative = -0.00161517
smoothSolver:  Solving for epsilon, Initial residual = 0.0121462, Final residual = 0.00010424, No Iterations 9
smoothSolver:  Solving for k, Initial residual = 0.0178595, Final residual = 0.000143879, No Iterations 11
smoothSolver:  Solving for f, Initial residual = 0.137998, Final residual = 0.00115622, No Iterations 7
bounding f, min: -1.37079 max: 5.03569 average: 1.14848
smoothSolver:  Solving for phit, Initial residual = 0.0182715, Final residual = 0.00015258, No Iterations 11
bounding phit, min: 0 max: 15.3347 average: 1.46616
ExecutionTime = 30.31 s  ClockTime = 30 s

Time = 14

smoothSolver:  Solving for Ux, Initial residual = 0.0241695, Final residual = 0.000157345, No Iterations 11
smoothSolver:  Solving for Uy, Initial residual = 0.102766, Final residual = 0.000712267, No Iterations 12
GAMG:  Solving for p, Initial residual = 0.0359239, Final residual = 0.00697755, No Iterations 1000
time step continuity errors : sum local = 0.00161255, global = -4.30305e-05, cumulative = -0.0016582
smoothSolver:  Solving for epsilon, Initial residual = 0.0101534, Final residual = 7.14053e-05, No Iterations 10
smoothSolver:  Solving for k, Initial residual = 0.0150907, Final residual = 0.000114633, No Iterations 11
smoothSolver:  Solving for f, Initial residual = 0.125903, Final residual = 0.000856306, No Iterations 8
bounding f, min: -1.38997 max: 4.50546 average: 1.10288
smoothSolver:  Solving for phit, Initial residual = 0.0170719, Final residual = 0.000147421, No Iterations 11
bounding phit, min: 0 max: 14.3105 average: 1.41172
ExecutionTime = 32.39 s  ClockTime = 32 s

Time = 15

smoothSolver:  Solving for Ux, Initial residual = 0.0208654, Final residual = 0.00013513, No Iterations 11
smoothSolver:  Solving for Uy, Initial residual = 0.110553, Final residual = 0.000762444, No Iterations 12
GAMG:  Solving for p, Initial residual = 0.0515659, Final residual = 0.00158792, No Iterations 1000
time step continuity errors : sum local = 0.000225953, global = -4.94636e-06, cumulative = -0.00166315
smoothSolver:  Solving for epsilon, Initial residual = 0.00927044, Final residual = 6.72166e-05, No Iterations 10
smoothSolver:  Solving for k, Initial residual = 0.0127365, Final residual = 9.52364e-05, No Iterations 11
smoothSolver:  Solving for f, Initial residual = 0.0949219, Final residual = 0.000895326, No Iterations 8
bounding f, min: -1.39866 max: 4.13298 average: 1.06652
smoothSolver:  Solving for phit, Initial residual = 0.0159788, Final residual = 0.000143763, No Iterations 11
bounding phit, min: 0 max: 13.3416 average: 1.36383
ExecutionTime = 34.45 s  ClockTime = 34 s

Time = 16

smoothSolver:  Solving for Ux, Initial residual = 0.0173732, Final residual = 0.000115985, No Iterations 11
smoothSolver:  Solving for Uy, Initial residual = 0.0844936, Final residual = 0.000575041, No Iterations 12
GAMG:  Solving for p, Initial residual = 0.0494279, Final residual = 0.00485819, No Iterations 1000
time step continuity errors : sum local = 0.000705123, global = 2.29296e-05, cumulative = -0.00164022
smoothSolver:  Solving for epsilon, Initial residual = 0.00811912, Final residual = 6.12983e-05, No Iterations 10
smoothSolver:  Solving for k, Initial residual = 0.0109384, Final residual = 8.21291e-05, No Iterations 11
smoothSolver:  Solving for f, Initial residual = 0.0784892, Final residual = 0.000511063, No Iterations 9
bounding f, min: -1.4034 max: 3.85852 average: 1.0413
smoothSolver:  Solving for phit, Initial residual = 0.015065, Final residual = 0.00014051, No Iterations 11
bounding phit, min: 0 max: 12.4283 average: 1.32169
ExecutionTime = 36.51 s  ClockTime = 36 s

Time = 17

smoothSolver:  Solving for Ux, Initial residual = 0.0142473, Final residual = 0.000101601, No Iterations 11
smoothSolver:  Solving for Uy, Initial residual = 0.0407975, Final residual = 0.000406914, No Iterations 11
GAMG:  Solving for p, Initial residual = 0.0297853, Final residual = 0.00249829, No Iterations 1000
time step continuity errors : sum local = 0.000499519, global = 1.63472e-05, cumulative = -0.00162387
smoothSolver:  Solving for epsilon, Initial residual = 0.00764795, Final residual = 6.24701e-05, No Iterations 10
smoothSolver:  Solving for k, Initial residual = 0.00957642, Final residual = 7.30263e-05, No Iterations 11
smoothSolver:  Solving for f, Initial residual = 0.0711921, Final residual = 0.000695065, No Iterations 8
bounding f, min: -1.38948 max: 3.6526 average: 1.02808
smoothSolver:  Solving for phit, Initial residual = 0.0143439, Final residual = 0.000137269, No Iterations 11
bounding phit, min: 0 max: 11.577 average: 1.28499
ExecutionTime = 38.59 s  ClockTime = 39 s

Time = 18

smoothSolver:  Solving for Ux, Initial residual = 0.0119429, Final residual = 9.55431e-05, No Iterations 11
smoothSolver:  Solving for Uy, Initial residual = 0.0128721, Final residual = 0.000110084, No Iterations 11
GAMG:  Solving for p, Initial residual = 0.0159721, Final residual = 0.000530664, No Iterations 1000
time step continuity errors : sum local = 0.000130275, global = 1.58286e-06, cumulative = -0.00162229
smoothSolver:  Solving for epsilon, Initial residual = 0.00744172, Final residual = 6.75556e-05, No Iterations 10
smoothSolver:  Solving for k, Initial residual = 0.00850201, Final residual = 6.64248e-05, No Iterations 11
smoothSolver:  Solving for f, Initial residual = 0.0660572, Final residual = 0.000542991, No Iterations 8
bounding f, min: -1.3658 max: 3.48752 average: 1.02104
smoothSolver:  Solving for phit, Initial residual = 0.0137286, Final residual = 0.000134316, No Iterations 11
bounding phit, min: 0 max: 10.7893 average: 1.25358
ExecutionTime = 40.66 s  ClockTime = 41 s

Time = 19

smoothSolver:  Solving for Ux, Initial residual = 0.0103282, Final residual = 8.97325e-05, No Iterations 11
smoothSolver:  Solving for Uy, Initial residual = 0.0257586, Final residual = 0.000171727, No Iterations 12
GAMG:  Solving for p, Initial residual = 0.011711, Final residual = 0.00133788, No Iterations 1000
time step continuity errors : sum local = 0.000334699, global = 8.50798e-06, cumulative = -0.00161378
smoothSolver:  Solving for epsilon, Initial residual = 0.00684413, Final residual = 4.6078e-05, No Iterations 11
smoothSolver:  Solving for k, Initial residual = 0.00766452, Final residual = 6.14868e-05, No Iterations 11
smoothSolver:  Solving for f, Initial residual = 0.0570362, Final residual = 0.000417122, No Iterations 8
bounding f, min: -1.32749 max: 3.35079 average: 1.01315
smoothSolver:  Solving for phit, Initial residual = 0.0131849, Final residual = 8.7126e-05, No Iterations 12
bounding phit, min: 0 max: 10.0626 average: 1.22697
ExecutionTime = 42.72 s  ClockTime = 43 s

Time = 20

smoothSolver:  Solving for Ux, Initial residual = 0.00911538, Final residual = 7.90382e-05, No Iterations 11
smoothSolver:  Solving for Uy, Initial residual = 0.0201513, Final residual = 0.000200842, No Iterations 11
GAMG:  Solving for p, Initial residual = 0.0118701, Final residual = 0.00177949, No Iterations 1000
time step continuity errors : sum local = 0.00039432, global = 1.05439e-05, cumulative = -0.00160324
smoothSolver:  Solving for epsilon, Initial residual = 0.00650414, Final residual = 4.64081e-05, No Iterations 11
smoothSolver:  Solving for k, Initial residual = 0.0070721, Final residual = 5.7796e-05, No Iterations 11
smoothSolver:  Solving for f, Initial residual = 0.0485511, Final residual = 0.000349835, No Iterations 8
bounding f, min: -1.27639 max: 3.23731 average: 1.00131
smoothSolver:  Solving for phit, Initial residual = 0.0127302, Final residual = 8.62745e-05, No Iterations 12
bounding phit, min: 0 max: 9.4019 average: 1.20459
ExecutionTime = 44.79 s  ClockTime = 45 s

Time = 21

smoothSolver:  Solving for Ux, Initial residual = 0.0081195, Final residual = 6.84286e-05, No Iterations 11
smoothSolver:  Solving for Uy, Initial residual = 0.00889926, Final residual = 8.27545e-05, No Iterations 11
GAMG:  Solving for p, Initial residual = 0.0123948, Final residual = 0.00162887, No Iterations 1000
time step continuity errors : sum local = 0.000299969, global = 8.0171e-06, cumulative = -0.00159522
smoothSolver:  Solving for epsilon, Initial residual = 0.00754299, Final residual = 7.45832e-05, No Iterations 10
smoothSolver:  Solving for k, Initial residual = 0.00659588, Final residual = 5.4983e-05, No Iterations 11
smoothSolver:  Solving for f, Initial residual = 0.0375739, Final residual = 0.000338109, No Iterations 8
bounding f, min: -1.21932 max: 3.13875 average: 0.987019
smoothSolver:  Solving for phit, Initial residual = 0.0123723, Final residual = 8.59291e-05, No Iterations 12
bounding phit, min: 0 max: 8.81168 average: 1.18577
ExecutionTime = 46.86 s  ClockTime = 47 s

Time = 22

smoothSolver:  Solving for Ux, Initial residual = 0.00724021, Final residual = 6.0411e-05, No Iterations 11
smoothSolver:  Solving for Uy, Initial residual = 0.00673545, Final residual = 6.21173e-05, No Iterations 11
GAMG:  Solving for p, Initial residual = 0.0134872, Final residual = 0.00113588, No Iterations 1000
time step continuity errors : sum local = 0.000174733, global = 4.53105e-06, cumulative = -0.00159069
smoothSolver:  Solving for epsilon, Initial residual = 0.00762176, Final residual = 5.45511e-05, No Iterations 11
smoothSolver:  Solving for k, Initial residual = 0.0062012, Final residual = 5.26416e-05, No Iterations 11
smoothSolver:  Solving for f, Initial residual = 0.042217, Final residual = 0.000334042, No Iterations 8
bounding f, min: -1.15861 max: 3.05177 average: 0.97479
smoothSolver:  Solving for phit, Initial residual = 0.0121026, Final residual = 8.60187e-05, No Iterations 12
bounding phit, min: 0 max: 8.27781 average: 1.16995
ExecutionTime = 48.93 s  ClockTime = 49 s

Time = 23

smoothSolver:  Solving for Ux, Initial residual = 0.00648921, Final residual = 5.4337e-05, No Iterations 11
smoothSolver:  Solving for Uy, Initial residual = 0.00827011, Final residual = 8.00908e-05, No Iterations 11
GAMG:  Solving for p, Initial residual = 0.0146757, Final residual = 0.000677927, No Iterations 1000
time step continuity errors : sum local = 9.20889e-05, global = 2.0549e-06, cumulative = -0.00158863
smoothSolver:  Solving for epsilon, Initial residual = 0.0084048, Final residual = 5.75684e-05, No Iterations 11
smoothSolver:  Solving for k, Initial residual = 0.00588202, Final residual = 5.04289e-05, No Iterations 11
smoothSolver:  Solving for f, Initial residual = 0.0448891, Final residual = 0.000302851, No Iterations 8
bounding f, min: -1.09651 max: 2.97072 average: 0.968926
smoothSolver:  Solving for phit, Initial residual = 0.0119257, Final residual = 8.66135e-05, No Iterations 12
bounding phit, min: 0 max: 7.79581 average: 1.15677
ExecutionTime = 50.98 s  ClockTime = 51 s

Time = 24

smoothSolver:  Solving for Ux, Initial residual = 0.00583409, Final residual = 4.95364e-05, No Iterations 11
smoothSolver:  Solving for Uy, Initial residual = 0.0065046, Final residual = 6.18705e-05, No Iterations 11
GAMG:  Solving for p, Initial residual = 0.0143088, Final residual = 0.000489528, No Iterations 1000
time step continuity errors : sum local = 6.23741e-05, global = 9.01587e-09, cumulative = -0.00158862
smoothSolver:  Solving for epsilon, Initial residual = 0.0088982, Final residual = 8.50316e-05, No Iterations 10
smoothSolver:  Solving for k, Initial residual = 0.00555065, Final residual = 4.81438e-05, No Iterations 11
smoothSolver:  Solving for f, Initial residual = 0.0418894, Final residual = 0.000260937, No Iterations 8
bounding f, min: -1.03505 max: 2.89949 average: 0.970172
smoothSolver:  Solving for phit, Initial residual = 0.011845, Final residual = 8.79207e-05, No Iterations 12
bounding phit, min: 0 max: 7.36109 average: 1.14603
ExecutionTime = 53.05 s  ClockTime = 53 s

Time = 25

smoothSolver:  Solving for Ux, Initial residual = 0.0052889, Final residual = 4.55258e-05, No Iterations 11
smoothSolver:  Solving for Uy, Initial residual = 0.00408682, Final residual = 3.66573e-05, No Iterations 11
GAMG:  Solving for p, Initial residual = 0.0132396, Final residual = 0.00040872, No Iterations 1000
time step continuity errors : sum local = 4.98653e-05, global = 8.47525e-07, cumulative = -0.00158778
smoothSolver:  Solving for epsilon, Initial residual = 0.00841366, Final residual = 7.75956e-05, No Iterations 10
smoothSolver:  Solving for k, Initial residual = 0.00520903, Final residual = 4.59117e-05, No Iterations 11
smoothSolver:  Solving for f, Initial residual = 0.0464344, Final residual = 0.000347164, No Iterations 7
bounding f, min: -0.971867 max: 2.9488 average: 0.973238
smoothSolver:  Solving for phit, Initial residual = 0.0118755, Final residual = 8.99141e-05, No Iterations 12
bounding phit, min: 0 max: 6.96912 average: 1.13754
ExecutionTime = 55.11 s  ClockTime = 55 s

Time = 26

smoothSolver:  Solving for Ux, Initial residual = 0.00481682, Final residual = 4.22596e-05, No Iterations 11
smoothSolver:  Solving for Uy, Initial residual = 0.00317368, Final residual = 2.74338e-05, No Iterations 11
GAMG:  Solving for p, Initial residual = 0.0120548, Final residual = 0.000524053, No Iterations 1000
time step continuity errors : sum local = 6.2967e-05, global = 1.54643e-06, cumulative = -0.00158623
smoothSolver:  Solving for epsilon, Initial residual = 0.00693582, Final residual = 6.8753e-05, No Iterations 10
smoothSolver:  Solving for k, Initial residual = 0.0049881, Final residual = 4.43201e-05, No Iterations 11
smoothSolver:  Solving for f, Initial residual = 0.0423782, Final residual = 0.000299124, No Iterations 7
bounding f, min: -0.915126 max: 2.84335 average: 0.970735
smoothSolver:  Solving for phit, Initial residual = 0.0120253, Final residual = 9.23669e-05, No Iterations 12
bounding phit, min: 0 max: 6.61549 average: 1.13094
ExecutionTime = 57.17 s  ClockTime = 57 s

Time = 27

smoothSolver:  Solving for Ux, Initial residual = 0.00441276, Final residual = 3.90138e-05, No Iterations 11
smoothSolver:  Solving for Uy, Initial residual = 0.00294171, Final residual = 2.60476e-05, No Iterations 11
GAMG:  Solving for p, Initial residual = 0.0111532, Final residual = 0.000616622, No Iterations 1000
time step continuity errors : sum local = 7.05236e-05, global = 2.02821e-06, cumulative = -0.0015842
smoothSolver:  Solving for epsilon, Initial residual = 0.00816149, Final residual = 6.50015e-05, No Iterations 10
smoothSolver:  Solving for k, Initial residual = 0.00477583, Final residual = 4.38052e-05, No Iterations 11
smoothSolver:  Solving for f, Initial residual = 0.0345624, Final residual = 0.000270547, No Iterations 7
bounding f, min: -0.861196 max: 2.72253 average: 0.961459
smoothSolver:  Solving for phit, Initial residual = 0.0122656, Final residual = 9.49463e-05, No Iterations 12
bounding phit, min: 0 max: 6.29611 average: 1.1258
ExecutionTime = 59.23 s  ClockTime = 59 s

Time = 28

smoothSolver:  Solving for Ux, Initial residual = 0.00402652, Final residual = 3.57209e-05, No Iterations 11
smoothSolver:  Solving for Uy, Initial residual = 0.00278542, Final residual = 2.49131e-05, No Iterations 11
GAMG:  Solving for p, Initial residual = 0.0109002, Final residual = 0.000632265, No Iterations 1000
time step continuity errors : sum local = 6.72564e-05, global = 2.0754e-06, cumulative = -0.00158213
smoothSolver:  Solving for epsilon, Initial residual = 0.00807166, Final residual = 6.93908e-05, No Iterations 10
smoothSolver:  Solving for k, Initial residual = 0.00458264, Final residual = 4.43725e-05, No Iterations 11
smoothSolver:  Solving for f, Initial residual = 0.0344872, Final residual = 0.000276621, No Iterations 7
bounding f, min: -0.809949 max: 2.67426 average: 0.949943
smoothSolver:  Solving for phit, Initial residual = 0.0125146, Final residual = 9.73355e-05, No Iterations 12
bounding phit, min: 0 max: 6.01081 average: 1.12181
ExecutionTime = 61.29 s  ClockTime = 61 s

Time = 29

smoothSolver:  Solving for Ux, Initial residual = 0.00366205, Final residual = 3.25345e-05, No Iterations 11
smoothSolver:  Solving for Uy, Initial residual = 0.00244984, Final residual = 2.17215e-05, No Iterations 11
GAMG:  Solving for p, Initial residual = 0.0107912, Final residual = 0.000556231, No Iterations 1000
time step continuity errors : sum local = 5.44573e-05, global = 1.74783e-06, cumulative = -0.00158038
smoothSolver:  Solving for epsilon, Initial residual = 0.00727071, Final residual = 4.92056e-05, No Iterations 11
smoothSolver:  Solving for k, Initial residual = 0.0045699, Final residual = 3.03094e-05, No Iterations 12
smoothSolver:  Solving for f, Initial residual = 0.0374269, Final residual = 0.000306362, No Iterations 7
bounding f, min: -0.759925 max: 2.62832 average: 0.942524
smoothSolver:  Solving for phit, Initial residual = 0.0127649, Final residual = 9.95517e-05, No Iterations 12
bounding phit, min: 0 max: 5.75789 average: 1.11884
ExecutionTime = 63.35 s  ClockTime = 63 s

Time = 30

smoothSolver:  Solving for Ux, Initial residual = 0.0033595, Final residual = 2.97109e-05, No Iterations 11
smoothSolver:  Solving for Uy, Initial residual = 0.00230134, Final residual = 2.06324e-05, No Iterations 11
GAMG:  Solving for p, Initial residual = 0.0106366, Final residual = 0.000427085, No Iterations 1000
time step continuity errors : sum local = 3.88955e-05, global = 1.25045e-06, cumulative = -0.00157913
smoothSolver:  Solving for epsilon, Initial residual = 0.00847228, Final residual = 7.62321e-05, No Iterations 10
smoothSolver:  Solving for k, Initial residual = 0.00460283, Final residual = 3.1752e-05, No Iterations 12
smoothSolver:  Solving for f, Initial residual = 0.0375058, Final residual = 0.000298608, No Iterations 7
bounding f, min: -0.712861 max: 2.69379 average: 0.943174
smoothSolver:  Solving for phit, Initial residual = 0.0130498, Final residual = 0.000101934, No Iterations 12
bounding phit, min: 0 max: 5.52804 average: 1.11693
ExecutionTime = 65.43 s  ClockTime = 65 s

Time = 31

smoothSolver:  Solving for Ux, Initial residual = 0.00309391, Final residual = 2.74015e-05, No Iterations 11
smoothSolver:  Solving for Uy, Initial residual = 0.00229948, Final residual = 2.09742e-05, No Iterations 11
GAMG:  Solving for p, Initial residual = 0.0104643, Final residual = 0.000321176, No Iterations 1000
time step continuity errors : sum local = 2.79509e-05, global = 8.37573e-07, cumulative = -0.00157829
smoothSolver:  Solving for epsilon, Initial residual = 0.00831123, Final residual = 7.06651e-05, No Iterations 10
smoothSolver:  Solving for k, Initial residual = 0.00470821, Final residual = 3.36654e-05, No Iterations 12
smoothSolver:  Solving for f, Initial residual = 0.0390411, Final residual = 0.000271141, No Iterations 7
bounding f, min: -0.670353 max: 2.86967 average: 0.949067
smoothSolver:  Solving for phit, Initial residual = 0.0133889, Final residual = 0.000104777, No Iterations 12
bounding phit, min: 0 max: 5.31859 average: 1.11613
ExecutionTime = 67.49 s  ClockTime = 67 s

Time = 32

smoothSolver:  Solving for Ux, Initial residual = 0.00285569, Final residual = 2.55264e-05, No Iterations 11
smoothSolver:  Solving for Uy, Initial residual = 0.00215733, Final residual = 1.9797e-05, No Iterations 11
GAMG:  Solving for p, Initial residual = 0.00985233, Final residual = 0.000277829, No Iterations 1000
time step continuity errors : sum local = 2.36554e-05, global = 6.74613e-07, cumulative = -0.00157762
smoothSolver:  Solving for epsilon, Initial residual = 0.00730554, Final residual = 6.11834e-05, No Iterations 10
smoothSolver:  Solving for k, Initial residual = 0.00493925, Final residual = 3.64529e-05, No Iterations 12
smoothSolver:  Solving for f, Initial residual = 0.0400418, Final residual = 0.000248896, No Iterations 7
bounding f, min: -0.631306 max: 2.99676 average: 0.951555
smoothSolver:  Solving for phit, Initial residual = 0.0137848, Final residual = 0.000108094, No Iterations 12
bounding phit, min: 0 max: 5.12724 average: 1.11638
ExecutionTime = 69.56 s  ClockTime = 70 s

Time = 33

smoothSolver:  Solving for Ux, Initial residual = 0.00265582, Final residual = 2.38261e-05, No Iterations 11
smoothSolver:  Solving for Uy, Initial residual = 0.00189695, Final residual = 1.73568e-05, No Iterations 11
GAMG:  Solving for p, Initial residual = 0.00912428, Final residual = 0.000293531, No Iterations 1000
time step continuity errors : sum local = 2.45034e-05, global = 8.23615e-07, cumulative = -0.00157679
smoothSolver:  Solving for epsilon, Initial residual = 0.00774108, Final residual = 5.34249e-05, No Iterations 10
smoothSolver:  Solving for k, Initial residual = 0.00528169, Final residual = 3.91551e-05, No Iterations 12
smoothSolver:  Solving for f, Initial residual = 0.0364114, Final residual = 0.000223384, No Iterations 7
bounding f, min: -0.594095 max: 2.83026 average: 0.945198
smoothSolver:  Solving for phit, Initial residual = 0.0142268, Final residual = 0.000111545, No Iterations 12
bounding phit, min: 0 max: 4.95259 average: 1.11739
ExecutionTime = 71.61 s  ClockTime = 72 s

Time = 34

smoothSolver:  Solving for Ux, Initial residual = 0.00243577, Final residual = 2.20518e-05, No Iterations 11
smoothSolver:  Solving for Uy, Initial residual = 0.00169637, Final residual = 1.54364e-05, No Iterations 11
GAMG:  Solving for p, Initial residual = 0.0086278, Final residual = 0.000336431, No Iterations 1000
time step continuity errors : sum local = 2.70899e-05, global = 1.0512e-06, cumulative = -0.00157574
smoothSolver:  Solving for epsilon, Initial residual = 0.00817956, Final residual = 5.46174e-05, No Iterations 10
smoothSolver:  Solving for k, Initial residual = 0.00562999, Final residual = 4.15973e-05, No Iterations 12
smoothSolver:  Solving for f, Initial residual = 0.0299341, Final residual = 0.000222302, No Iterations 7
bounding f, min: -0.557893 max: 2.78471 average: 0.932548
smoothSolver:  Solving for phit, Initial residual = 0.0146314, Final residual = 0.000114793, No Iterations 12
bounding phit, min: 0 max: 4.79844 average: 1.11888
ExecutionTime = 73.68 s  ClockTime = 74 s

Time = 35

smoothSolver:  Solving for Ux, Initial residual = 0.00221301, Final residual = 2.01212e-05, No Iterations 11
smoothSolver:  Solving for Uy, Initial residual = 0.00163089, Final residual = 1.49891e-05, No Iterations 11
GAMG:  Solving for p, Initial residual = 0.00831582, Final residual = 0.000347309, No Iterations 1000
time step continuity errors : sum local = 2.64313e-05, global = 1.08403e-06, cumulative = -0.00157466
smoothSolver:  Solving for epsilon, Initial residual = 0.00740897, Final residual = 5.87068e-05, No Iterations 10
smoothSolver:  Solving for k, Initial residual = 0.00599241, Final residual = 4.40591e-05, No Iterations 12
smoothSolver:  Solving for f, Initial residual = 0.0359905, Final residual = 0.000269752, No Iterations 7
bounding f, min: -0.522761 max: 2.67657 average: 0.920422
smoothSolver:  Solving for phit, Initial residual = 0.0150056, Final residual = 0.000117687, No Iterations 12
bounding phit, min: 0 max: 4.65645 average: 1.12066
ExecutionTime = 75.76 s  ClockTime = 76 s

Time = 36

smoothSolver:  Solving for Ux, Initial residual = 0.00202523, Final residual = 1.82321e-05, No Iterations 11
smoothSolver:  Solving for Uy, Initial residual = 0.00150812, Final residual = 1.39679e-05, No Iterations 11
GAMG:  Solving for p, Initial residual = 0.00801377, Final residual = 0.000289835, No Iterations 1000
time step continuity errors : sum local = 2.07486e-05, global = 8.70568e-07, cumulative = -0.00157379
smoothSolver:  Solving for epsilon, Initial residual = 0.00726974, Final residual = 6.15153e-05, No Iterations 10
smoothSolver:  Solving for k, Initial residual = 0.00644783, Final residual = 4.67488e-05, No Iterations 12
smoothSolver:  Solving for f, Initial residual = 0.0365945, Final residual = 0.000286662, No Iterations 7
bounding f, min: -0.48925 max: 2.67844 average: 0.915036
smoothSolver:  Solving for phit, Initial residual = 0.0154014, Final residual = 0.000120581, No Iterations 12
bounding phit, min: 0 max: 4.52531 average: 1.12276
ExecutionTime = 77.83 s  ClockTime = 78 s

Time = 37

smoothSolver:  Solving for Ux, Initial residual = 0.00187269, Final residual = 1.66922e-05, No Iterations 11
smoothSolver:  Solving for Uy, Initial residual = 0.00142864, Final residual = 1.3248e-05, No Iterations 11
GAMG:  Solving for p, Initial residual = 0.0077959, Final residual = 0.000198196, No Iterations 1000
time step continuity errors : sum local = 1.36369e-05, global = 5.38056e-07, cumulative = -0.00157325
smoothSolver:  Solving for epsilon, Initial residual = 0.00810788, Final residual = 6.05109e-05, No Iterations 10
smoothSolver:  Solving for k, Initial residual = 0.00680712, Final residual = 4.99475e-05, No Iterations 12
smoothSolver:  Solving for f, Initial residual = 0.033752, Final residual = 0.000277754, No Iterations 7
bounding f, min: -0.457798 max: 2.77086 average: 0.91742
smoothSolver:  Solving for phit, Initial residual = 0.0158394, Final residual = 0.00012384, No Iterations 12
bounding phit, min: 0 max: 4.40387 average: 1.12536
ExecutionTime = 79.88 s  ClockTime = 80 s

Time = 38

smoothSolver:  Solving for Ux, Initial residual = 0.00175028, Final residual = 1.55759e-05, No Iterations 11
smoothSolver:  Solving for Uy, Initial residual = 0.0014264, Final residual = 1.34236e-05, No Iterations 11
GAMG:  Solving for p, Initial residual = 0.00743053, Final residual = 0.000133855, No Iterations 1000
time step continuity errors : sum local = 9.15008e-06, global = 2.91125e-07, cumulative = -0.00157296
smoothSolver:  Solving for epsilon, Initial residual = 0.00779954, Final residual = 5.27131e-05, No Iterations 10
smoothSolver:  Solving for k, Initial residual = 0.00718591, Final residual = 5.34163e-05, No Iterations 12
smoothSolver:  Solving for f, Initial residual = 0.0385867, Final residual = 0.000246372, No Iterations 7
bounding f, min: -0.428445 max: 2.95208 average: 0.920569
smoothSolver:  Solving for phit, Initial residual = 0.0163444, Final residual = 0.000127794, No Iterations 12
bounding phit, min: 0 max: 4.29568 average: 1.12854
ExecutionTime = 81.96 s  ClockTime = 82 s

Time = 39

smoothSolver:  Solving for Ux, Initial residual = 0.00163445, Final residual = 1.46925e-05, No Iterations 11
smoothSolver:  Solving for Uy, Initial residual = 0.00135313, Final residual = 1.28998e-05, No Iterations 11
GAMG:  Solving for p, Initial residual = 0.00670395, Final residual = 0.000124516, No Iterations 1000
time step continuity errors : sum local = 8.58891e-06, global = 3.00684e-07, cumulative = -0.00157266
smoothSolver:  Solving for epsilon, Initial residual = 0.00677855, Final residual = 6.69423e-05, No Iterations 9
smoothSolver:  Solving for k, Initial residual = 0.00771272, Final residual = 5.67018e-05, No Iterations 12
smoothSolver:  Solving for f, Initial residual = 0.0351994, Final residual = 0.000231993, No Iterations 7
bounding f, min: -0.400939 max: 2.88939 average: 0.915736
smoothSolver:  Solving for phit, Initial residual = 0.0169114, Final residual = 0.000131995, No Iterations 12
bounding phit, min: 0 max: 4.19555 average: 1.13218
ExecutionTime = 84.01 s  ClockTime = 84 s

Time = 40

smoothSolver:  Solving for Ux, Initial residual = 0.00152147, Final residual = 1.37649e-05, No Iterations 11
smoothSolver:  Solving for Uy, Initial residual = 0.00122344, Final residual = 1.16268e-05, No Iterations 11
GAMG:  Solving for p, Initial residual = 0.00617948, Final residual = 0.000165006, No Iterations 1000
time step continuity errors : sum local = 1.13279e-05, global = 5.63521e-07, cumulative = -0.00157209
smoothSolver:  Solving for epsilon, Initial residual = 0.00830646, Final residual = 6.49556e-05, No Iterations 9
smoothSolver:  Solving for k, Initial residual = 0.00812442, Final residual = 5.96276e-05, No Iterations 12
smoothSolver:  Solving for f, Initial residual = 0.0309677, Final residual = 0.0002318, No Iterations 7
bounding f, min: -0.374955 max: 2.84643 average: 0.901619
smoothSolver:  Solving for phit, Initial residual = 0.0174313, Final residual = 0.000135987, No Iterations 12
bounding phit, min: 0 max: 4.1019 average: 1.13602
ExecutionTime = 86.07 s  ClockTime = 86 s

Time = 41

smoothSolver:  Solving for Ux, Initial residual = 0.00137814, Final residual = 1.25921e-05, No Iterations 11
smoothSolver:  Solving for Uy, Initial residual = 0.00115585, Final residual = 1.09465e-05, No Iterations 11
GAMG:  Solving for p, Initial residual = 0.00588424, Final residual = 0.000208422, No Iterations 1000
time step continuity errors : sum local = 1.38266e-05, global = 7.36003e-07, cumulative = -0.00157136
smoothSolver:  Solving for epsilon, Initial residual = 0.00763031, Final residual = 6.81381e-05, No Iterations 9
smoothSolver:  Solving for k, Initial residual = 0.0085069, Final residual = 6.23704e-05, No Iterations 12
smoothSolver:  Solving for f, Initial residual = 0.0338653, Final residual = 0.000279288, No Iterations 7
bounding f, min: -0.350266 max: 2.75018 average: 0.883999
smoothSolver:  Solving for phit, Initial residual = 0.0178598, Final residual = 0.00013921, No Iterations 12
bounding phit, min: 0 max: 4.01484 average: 1.13979
ExecutionTime = 88.14 s  ClockTime = 88 s

Time = 42

smoothSolver:  Solving for Ux, Initial residual = 0.00123944, Final residual = 1.12237e-05, No Iterations 11
smoothSolver:  Solving for Uy, Initial residual = 0.00111471, Final residual = 1.06307e-05, No Iterations 11
GAMG:  Solving for p, Initial residual = 0.00566118, Final residual = 0.000199122, No Iterations 1000
time step continuity errors : sum local = 1.25059e-05, global = 6.64504e-07, cumulative = -0.00157069
smoothSolver:  Solving for epsilon, Initial residual = 0.00637977, Final residual = 4.45032e-05, No Iterations 10
smoothSolver:  Solving for k, Initial residual = 0.00901988, Final residual = 6.52825e-05, No Iterations 12
smoothSolver:  Solving for f, Initial residual = 0.0359811, Final residual = 0.00032896, No Iterations 7
bounding f, min: -0.326794 max: 2.59821 average: 0.870256
smoothSolver:  Solving for phit, Initial residual = 0.0182464, Final residual = 0.00014191, No Iterations 12
bounding phit, min: 0 max: 3.93615 average: 1.14344
ExecutionTime = 90.21 s  ClockTime = 90 s

Time = 43

smoothSolver:  Solving for Ux, Initial residual = 0.00115463, Final residual = 1.00051e-05, No Iterations 11
smoothSolver:  Solving for Uy, Initial residual = 0.00103361, Final residual = 9.87005e-06, No Iterations 11
GAMG:  Solving for p, Initial residual = 0.00546385, Final residual = 0.000133483, No Iterations 1000
time step continuity errors : sum local = 8.03016e-06, global = 4.16491e-07, cumulative = -0.00157028
smoothSolver:  Solving for epsilon, Initial residual = 0.00743475, Final residual = 7.04436e-05, No Iterations 9
smoothSolver:  Solving for k, Initial residual = 0.00948221, Final residual = 6.87413e-05, No Iterations 12
smoothSolver:  Solving for f, Initial residual = 0.0355158, Final residual = 0.000315887, No Iterations 7
bounding f, min: -0.304501 max: 2.69805 average: 0.864726
smoothSolver:  Solving for phit, Initial residual = 0.0186689, Final residual = 0.000144676, No Iterations 12
bounding phit, min: 0 max: 3.86168 average: 1.14715
ExecutionTime = 92.27 s  ClockTime = 92 s

Time = 44

smoothSolver:  Solving for Ux, Initial residual = 0.00107411, Final residual = 9.20022e-06, No Iterations 11
smoothSolver:  Solving for Uy, Initial residual = 0.0010083, Final residual = 9.65571e-06, No Iterations 11
GAMG:  Solving for p, Initial residual = 0.00532356, Final residual = 7.26497e-05, No Iterations 1000
time step continuity errors : sum local = 4.35642e-06, global = 1.90657e-07, cumulative = -0.00157008
smoothSolver:  Solving for epsilon, Initial residual = 0.00713222, Final residual = 6.5495e-05, No Iterations 9
smoothSolver:  Solving for k, Initial residual = 0.00995271, Final residual = 7.26506e-05, No Iterations 12
smoothSolver:  Solving for f, Initial residual = 0.0351963, Final residual = 0.000291501, No Iterations 7
bounding f, min: -0.283385 max: 2.79252 average: 0.864375
smoothSolver:  Solving for phit, Initial residual = 0.0191657, Final residual = 0.000148179, No Iterations 12
bounding phit, min: 0 max: 3.79096 average: 1.15114
ExecutionTime = 94.34 s  ClockTime = 94 s

Time = 45

smoothSolver:  Solving for Ux, Initial residual = 0.00100707, Final residual = 8.7478e-06, No Iterations 11
smoothSolver:  Solving for Uy, Initial residual = 0.00100303, Final residual = 9.75932e-06, No Iterations 11
GAMG:  Solving for p, Initial residual = 0.00482985, Final residual = 4.82902e-05, No Iterations 976
time step continuity errors : sum local = 2.98292e-06, global = 9.10212e-08, cumulative = -0.00156999
smoothSolver:  Solving for epsilon, Initial residual = 0.00655516, Final residual = 5.39685e-05, No Iterations 9
smoothSolver:  Solving for k, Initial residual = 0.0105247, Final residual = 7.65186e-05, No Iterations 12
smoothSolver:  Solving for f, Initial residual = 0.0371052, Final residual = 0.000261719, No Iterations 7
bounding f, min: -0.262924 max: 2.93035 average: 0.859978
smoothSolver:  Solving for phit, Initial residual = 0.0197295, Final residual = 0.000152304, No Iterations 12
bounding phit, min: 0 max: 3.72656 average: 1.15547
ExecutionTime = 96.36 s  ClockTime = 96 s

Time = 46

smoothSolver:  Solving for Ux, Initial residual = 0.000960909, Final residual = 8.37362e-06, No Iterations 11
smoothSolver:  Solving for Uy, Initial residual = 0.000944023, Final residual = 9.28337e-06, No Iterations 11
GAMG:  Solving for p, Initial residual = 0.0042769, Final residual = 6.45349e-05, No Iterations 1000
time step continuity errors : sum local = 4.09295e-06, global = 2.43579e-07, cumulative = -0.00156975
smoothSolver:  Solving for epsilon, Initial residual = 0.00744139, Final residual = 7.16429e-05, No Iterations 8
smoothSolver:  Solving for k, Initial residual = 0.0110974, Final residual = 8.00067e-05, No Iterations 12
smoothSolver:  Solving for f, Initial residual = 0.0339984, Final residual = 0.000249658, No Iterations 7
bounding f, min: -0.243759 max: 2.81856 average: 0.845692
smoothSolver:  Solving for phit, Initial residual = 0.0203025, Final residual = 0.000156372, No Iterations 12
bounding phit, min: 0 max: 3.66519 average: 1.15994
ExecutionTime = 98.43 s  ClockTime = 98 s

Time = 47

smoothSolver:  Solving for Ux, Initial residual = 0.000870511, Final residual = 7.77999e-06, No Iterations 11
smoothSolver:  Solving for Uy, Initial residual = 0.000890042, Final residual = 8.67234e-06, No Iterations 11
GAMG:  Solving for p, Initial residual = 0.00403306, Final residual = 0.000113259, No Iterations 1000
time step continuity errors : sum local = 7.12821e-06, global = 5.08877e-07, cumulative = -0.00156924
smoothSolver:  Solving for epsilon, Initial residual = 0.00789108, Final residual = 5.08056e-05, No Iterations 9
smoothSolver:  Solving for k, Initial residual = 0.0115429, Final residual = 8.31408e-05, No Iterations 12
smoothSolver:  Solving for f, Initial residual = 0.0309661, Final residual = 0.000296386, No Iterations 7
bounding f, min: -0.226456 max: 2.74388 average: 0.824167
smoothSolver:  Solving for phit, Initial residual = 0.020707, Final residual = 0.000159387, No Iterations 12
bounding phit, min: 0 max: 3.60612 average: 1.16422
ExecutionTime = 100.5 s  ClockTime = 100 s

Time = 48

smoothSolver:  Solving for Ux, Initial residual = 0.000774262, Final residual = 6.81612e-06, No Iterations 11
smoothSolver:  Solving for Uy, Initial residual = 0.000869714, Final residual = 8.38332e-06, No Iterations 11
GAMG:  Solving for p, Initial residual = 0.0039182, Final residual = 0.000137436, No Iterations 1000
time step continuity errors : sum local = 8.28295e-06, global = 5.67156e-07, cumulative = -0.00156867
smoothSolver:  Solving for epsilon, Initial residual = 0.006645, Final residual = 4.83464e-05, No Iterations 9
smoothSolver:  Solving for k, Initial residual = 0.0120018, Final residual = 8.6286e-05, No Iterations 12
smoothSolver:  Solving for f, Initial residual = 0.0382039, Final residual = 0.000371927, No Iterations 7
bounding f, min: -0.211512 max: 2.61013 average: 0.802599
smoothSolver:  Solving for phit, Initial residual = 0.0209847, Final residual = 0.000161195, No Iterations 12
bounding phit, min: 0 max: 3.5515 average: 1.16809
ExecutionTime = 102.55 s  ClockTime = 102 s

Time = 49

smoothSolver:  Solving for Ux, Initial residual = 0.000701411, Final residual = 5.71548e-06, No Iterations 11
smoothSolver:  Solving for Uy, Initial residual = 0.000824312, Final residual = 7.99842e-06, No Iterations 11
GAMG:  Solving for p, Initial residual = 0.00378889, Final residual = 0.000107673, No Iterations 1000
time step continuity errors : sum local = 6.16557e-06, global = 4.05902e-07, cumulative = -0.00156827
smoothSolver:  Solving for epsilon, Initial residual = 0.00588336, Final residual = 4.27443e-05, No Iterations 9
smoothSolver:  Solving for k, Initial residual = 0.0126434, Final residual = 8.98676e-05, No Iterations 12
smoothSolver:  Solving for f, Initial residual = 0.0367883, Final residual = 0.000241033, No Iterations 8
bounding f, min: -0.198384 max: 2.53927 average: 0.787057
smoothSolver:  Solving for phit, Initial residual = 0.0212315, Final residual = 0.00016221, No Iterations 12
bounding phit, min: 0 max: 3.49892 average: 1.17164
ExecutionTime = 104.63 s  ClockTime = 105 s

Time = 50

smoothSolver:  Solving for Ux, Initial residual = 0.000656936, Final residual = 4.94562e-06, No Iterations 11
smoothSolver:  Solving for Uy, Initial residual = 0.000784403, Final residual = 7.54882e-06, No Iterations 11
GAMG:  Solving for p, Initial residual = 0.00376847, Final residual = 5.38197e-05, No Iterations 1000
time step continuity errors : sum local = 3.03037e-06, global = 1.82794e-07, cumulative = -0.00156809
smoothSolver:  Solving for epsilon, Initial residual = 0.00691428, Final residual = 6.90716e-05, No Iterations 8
smoothSolver:  Solving for k, Initial residual = 0.0131614, Final residual = 9.40739e-05, No Iterations 12
smoothSolver:  Solving for f, Initial residual = 0.0337488, Final residual = 0.000218417, No Iterations 8
bounding f, min: -0.184277 max: 2.61197 average: 0.779351
smoothSolver:  Solving for phit, Initial residual = 0.0215182, Final residual = 0.000163877, No Iterations 12
bounding phit, min: 0 max: 3.44767 average: 1.17514
ExecutionTime = 106.69 s  ClockTime = 107 s

Time = 51

smoothSolver:  Solving for Ux, Initial residual = 0.000616049, Final residual = 4.64161e-06, No Iterations 11
smoothSolver:  Solving for Uy, Initial residual = 0.000778244, Final residual = 7.50974e-06, No Iterations 11
GAMG:  Solving for p, Initial residual = 0.00358387, Final residual = 3.57561e-05, No Iterations 901
time step continuity errors : sum local = 2.07842e-06, global = -1.72926e-07, cumulative = -0.00156826
smoothSolver:  Solving for epsilon, Initial residual = 0.00632321, Final residual = 5.84377e-05, No Iterations 8
smoothSolver:  Solving for k, Initial residual = 0.0137838, Final residual = 9.85963e-05, No Iterations 12
smoothSolver:  Solving for f, Initial residual = 0.0372678, Final residual = 0.000313318, No Iterations 7
bounding f, min: -0.169507 max: 2.79044 average: 0.773497
smoothSolver:  Solving for phit, Initial residual = 0.0219308, Final residual = 0.000166405, No Iterations 12
bounding phit, min: 0 max: 3.39998 average: 1.17882
ExecutionTime = 108.55 s  ClockTime = 109 s

Time = 52

smoothSolver:  Solving for Ux, Initial residual = 0.000585316, Final residual = 4.61293e-06, No Iterations 11
smoothSolver:  Solving for Uy, Initial residual = 0.000763503, Final residual = 7.54351e-06, No Iterations 11
GAMG:  Solving for p, Initial residual = 0.00310267, Final residual = 3.09067e-05, No Iterations 924
time step continuity errors : sum local = 1.88731e-06, global = 5.92907e-08, cumulative = -0.0015682
smoothSolver:  Solving for epsilon, Initial residual = 0.0058533, Final residual = 4.67248e-05, No Iterations 8
smoothSolver:  Solving for k, Initial residual = 0.0145349, Final residual = 0.000102834, No Iterations 12
smoothSolver:  Solving for f, Initial residual = 0.0336864, Final residual = 0.000284276, No Iterations 7
bounding f, min: -0.156482 max: 2.8968 average: 0.760618
smoothSolver:  Solving for phit, Initial residual = 0.0224017, Final residual = 0.000169363, No Iterations 12
bounding phit, min: 0 max: 3.35316 average: 1.18268
ExecutionTime = 110.46 s  ClockTime = 110 s

Time = 53

smoothSolver:  Solving for Ux, Initial residual = 0.000570489, Final residual = 4.58497e-06, No Iterations 11
smoothSolver:  Solving for Uy, Initial residual = 0.000745021, Final residual = 7.36266e-06, No Iterations 11
GAMG:  Solving for p, Initial residual = 0.00283505, Final residual = 5.05454e-05, No Iterations 1000
time step continuity errors : sum local = 3.17025e-06, global = 3.02302e-07, cumulative = -0.0015679
smoothSolver:  Solving for epsilon, Initial residual = 0.00772902, Final residual = 5.77625e-05, No Iterations 8
smoothSolver:  Solving for k, Initial residual = 0.0150954, Final residual = 0.000106579, No Iterations 12
smoothSolver:  Solving for f, Initial residual = 0.0316481, Final residual = 0.000304693, No Iterations 7
bounding f, min: -0.144028 max: 2.68168 average: 0.73854
smoothSolver:  Solving for phit, Initial residual = 0.0226983, Final residual = 0.000171148, No Iterations 12
bounding phit, min: 0 max: 3.3074 average: 1.1864
ExecutionTime = 112.53 s  ClockTime = 112 s

Time = 54

smoothSolver:  Solving for Ux, Initial residual = 0.000510537, Final residual = 4.15106e-06, No Iterations 11
smoothSolver:  Solving for Uy, Initial residual = 0.000727908, Final residual = 7.03556e-06, No Iterations 11
GAMG:  Solving for p, Initial residual = 0.00278385, Final residual = 8.83911e-05, No Iterations 1000
time step continuity errors : sum local = 5.42806e-06, global = 4.84448e-07, cumulative = -0.00156741
smoothSolver:  Solving for epsilon, Initial residual = 0.00696227, Final residual = 6.0501e-05, No Iterations 8
smoothSolver:  Solving for k, Initial residual = 0.0156144, Final residual = 0.0001101, No Iterations 12
smoothSolver:  Solving for f, Initial residual = 0.035222, Final residual = 0.000234852, No Iterations 8
bounding f, min: -0.133691 max: 2.57401 average: 0.711997
smoothSolver:  Solving for phit, Initial residual = 0.022674, Final residual = 0.000170735, No Iterations 12
bounding phit, min: 0 max: 3.26386 average: 1.18965
ExecutionTime = 114.58 s  ClockTime = 115 s

Time = 55

smoothSolver:  Solving for Ux, Initial residual = 0.000434726, Final residual = 3.2034e-06, No Iterations 11
smoothSolver:  Solving for Uy, Initial residual = 0.000698099, Final residual = 6.71646e-06, No Iterations 11
GAMG:  Solving for p, Initial residual = 0.00272524, Final residual = 9.02171e-05, No Iterations 1000
time step continuity errors : sum local = 5.26644e-06, global = 4.28147e-07, cumulative = -0.00156698
smoothSolver:  Solving for epsilon, Initial residual = 0.00549995, Final residual = 4.92533e-05, No Iterations 8
smoothSolver:  Solving for k, Initial residual = 0.0162408, Final residual = 0.000113755, No Iterations 12
smoothSolver:  Solving for f, Initial residual = 0.0387606, Final residual = 0.000266698, No Iterations 8
bounding f, min: -0.123372 max: 2.41939 average: 0.688475
smoothSolver:  Solving for phit, Initial residual = 0.0224806, Final residual = 0.000168223, No Iterations 12
bounding phit, min: 0 max: 3.22062 average: 1.19233
ExecutionTime = 116.64 s  ClockTime = 117 s

Time = 56

smoothSolver:  Solving for Ux, Initial residual = 0.000426296, Final residual = 3.47027e-06, No Iterations 10
smoothSolver:  Solving for Uy, Initial residual = 0.0006578, Final residual = 6.30705e-06, No Iterations 11
GAMG:  Solving for p, Initial residual = 0.00271072, Final residual = 5.32396e-05, No Iterations 1000
time step continuity errors : sum local = 2.99951e-06, global = 2.28837e-07, cumulative = -0.00156676
smoothSolver:  Solving for epsilon, Initial residual = 0.00598553, Final residual = 3.9338e-05, No Iterations 8
smoothSolver:  Solving for k, Initial residual = 0.0169459, Final residual = 0.000118023, No Iterations 12
smoothSolver:  Solving for f, Initial residual = 0.036038, Final residual = 0.000256435, No Iterations 8
bounding f, min: -0.113324 max: 2.45029 average: 0.672485
smoothSolver:  Solving for phit, Initial residual = 0.0223089, Final residual = 0.000165339, No Iterations 12
bounding phit, min: 0 max: 3.17837 average: 1.19464
ExecutionTime = 118.7 s  ClockTime = 119 s

Time = 57

smoothSolver:  Solving for Ux, Initial residual = 0.000394081, Final residual = 3.27075e-06, No Iterations 10
smoothSolver:  Solving for Uy, Initial residual = 0.000643718, Final residual = 6.0985e-06, No Iterations 11
GAMG:  Solving for p, Initial residual = 0.0027528, Final residual = 2.74108e-05, No Iterations 913
time step continuity errors : sum local = 1.56702e-06, global = -1.57676e-07, cumulative = -0.00156691
smoothSolver:  Solving for epsilon, Initial residual = 0.00591785, Final residual = 4.01637e-05, No Iterations 8
smoothSolver:  Solving for k, Initial residual = 0.0176223, Final residual = 0.00012285, No Iterations 12
smoothSolver:  Solving for f, Initial residual = 0.0324204, Final residual = 0.000226445, No Iterations 8
bounding f, min: -0.103855 max: 2.56048 average: 0.662395
smoothSolver:  Solving for phit, Initial residual = 0.0221651, Final residual = 0.000163149, No Iterations 12
bounding phit, min: 0 max: 3.13722 average: 1.19693
ExecutionTime = 120.59 s  ClockTime = 121 s

Time = 58

smoothSolver:  Solving for Ux, Initial residual = 0.000371749, Final residual = 3.55386e-06, No Iterations 10
smoothSolver:  Solving for Uy, Initial residual = 0.000641275, Final residual = 6.14274e-06, No Iterations 11
GAMG:  Solving for p, Initial residual = 0.00249715, Final residual = 2.49058e-05, No Iterations 947
time step continuity errors : sum local = 1.50374e-06, global = -1.49901e-07, cumulative = -0.00156706
smoothSolver:  Solving for epsilon, Initial residual = 0.00572536, Final residual = 3.99338e-05, No Iterations 8
smoothSolver:  Solving for k, Initial residual = 0.0184518, Final residual = 0.000127922, No Iterations 12
smoothSolver:  Solving for f, Initial residual = 0.0360932, Final residual = 0.000319686, No Iterations 7
bounding f, min: -0.0945227 max: 2.75977 average: 0.651023
smoothSolver:  Solving for phit, Initial residual = 0.0221401, Final residual = 0.000162357, No Iterations 12
bounding phit, min: 0 max: 3.09602 average: 1.19938
ExecutionTime = 122.54 s  ClockTime = 122 s

Time = 59

smoothSolver:  Solving for Ux, Initial residual = 0.000407139, Final residual = 3.87463e-06, No Iterations 10
smoothSolver:  Solving for Uy, Initial residual = 0.000639629, Final residual = 6.24595e-06, No Iterations 11
GAMG:  Solving for p, Initial residual = 0.00219475, Final residual = 2.18434e-05, No Iterations 930
time step continuity errors : sum local = 1.38999e-06, global = 1.11592e-07, cumulative = -0.00156695
smoothSolver:  Solving for epsilon, Initial residual = 0.00692051, Final residual = 6.01588e-05, No Iterations 8
smoothSolver:  Solving for k, Initial residual = 0.0192964, Final residual = 0.000132405, No Iterations 12
smoothSolver:  Solving for f, Initial residual = 0.0319807, Final residual = 0.000299861, No Iterations 7
bounding f, min: -0.087017 max: 2.71344 average: 0.631582
smoothSolver:  Solving for phit, Initial residual = 0.0220914, Final residual = 0.000160842, No Iterations 12
bounding phit, min: 0 max: 3.0558 average: 1.20184
ExecutionTime = 124.45 s  ClockTime = 124 s

Time = 60

smoothSolver:  Solving for Ux, Initial residual = 0.000408332, Final residual = 2.77702e-06, No Iterations 11
smoothSolver:  Solving for Uy, Initial residual = 0.000638768, Final residual = 6.10384e-06, No Iterations 11
GAMG:  Solving for p, Initial residual = 0.00211544, Final residual = 4.96486e-05, No Iterations 1000
time step continuity errors : sum local = 3.19522e-06, global = 3.66554e-07, cumulative = -0.00156658
smoothSolver:  Solving for epsilon, Initial residual = 0.00840962, Final residual = 5.40479e-05, No Iterations 9
smoothSolver:  Solving for k, Initial residual = 0.0198983, Final residual = 0.000136517, No Iterations 12
smoothSolver:  Solving for f, Initial residual = 0.030451, Final residual = 0.000215006, No Iterations 8
bounding f, min: -0.0822461 max: 2.50049 average: 0.605218
smoothSolver:  Solving for phit, Initial residual = 0.021657, Final residual = 0.000157207, No Iterations 12
bounding phit, min: 0 max: 3.01588 average: 1.20387
ExecutionTime = 126.51 s  ClockTime = 126 s

Time = 61

smoothSolver:  Solving for Ux, Initial residual = 0.000374265, Final residual = 3.62715e-06, No Iterations 10
smoothSolver:  Solving for Uy, Initial residual = 0.000631664, Final residual = 5.90968e-06, No Iterations 11
GAMG:  Solving for p, Initial residual = 0.00208337, Final residual = 6.93995e-05, No Iterations 1000
time step continuity errors : sum local = 4.3018e-06, global = 4.26275e-07, cumulative = -0.00156616
smoothSolver:  Solving for epsilon, Initial residual = 0.00721058, Final residual = 5.4312e-05, No Iterations 9
smoothSolver:  Solving for k, Initial residual = 0.0204658, Final residual = 0.000140424, No Iterations 12
smoothSolver:  Solving for f, Initial residual = 0.0372616, Final residual = 0.00025456, No Iterations 8
bounding f, min: -0.0769319 max: 2.37912 average: 0.578112
smoothSolver:  Solving for phit, Initial residual = 0.0208767, Final residual = 0.000150585, No Iterations 12
bounding phit, min: 0 max: 2.97567 average: 1.20528
ExecutionTime = 128.58 s  ClockTime = 129 s

Time = 62

smoothSolver:  Solving for Ux, Initial residual = 0.000354418, Final residual = 3.32141e-06, No Iterations 10
smoothSolver:  Solving for Uy, Initial residual = 0.000582886, Final residual = 5.50722e-06, No Iterations 11
GAMG:  Solving for p, Initial residual = 0.00202915, Final residual = 5.68106e-05, No Iterations 1000
time step continuity errors : sum local = 3.35793e-06, global = 3.02554e-07, cumulative = -0.00156586
smoothSolver:  Solving for epsilon, Initial residual = 0.00562711, Final residual = 4.68148e-05, No Iterations 9
smoothSolver:  Solving for k, Initial residual = 0.0212788, Final residual = 0.000144948, No Iterations 12
smoothSolver:  Solving for f, Initial residual = 0.0357721, Final residual = 0.000264769, No Iterations 8
bounding f, min: -0.0719587 max: 2.24192 average: 0.556113
smoothSolver:  Solving for phit, Initial residual = 0.0199996, Final residual = 0.000142573, No Iterations 12
bounding phit, min: 0 max: 2.93663 average: 1.20609
ExecutionTime = 130.63 s  ClockTime = 131 s

Time = 63

smoothSolver:  Solving for Ux, Initial residual = 0.000402571, Final residual = 3.96743e-06, No Iterations 10
smoothSolver:  Solving for Uy, Initial residual = 0.000558172, Final residual = 5.17305e-06, No Iterations 11
GAMG:  Solving for p, Initial residual = 0.00210428, Final residual = 2.65383e-05, No Iterations 1000
time step continuity errors : sum local = 1.54839e-06, global = 1.29241e-07, cumulative = -0.00156573
smoothSolver:  Solving for epsilon, Initial residual = 0.00654419, Final residual = 6.25313e-05, No Iterations 8
smoothSolver:  Solving for k, Initial residual = 0.0220483, Final residual = 0.000149587, No Iterations 12
smoothSolver:  Solving for f, Initial residual = 0.0324548, Final residual = 0.000237875, No Iterations 8
bounding f, min: -0.0671685 max: 2.28153 average: 0.541182
smoothSolver:  Solving for phit, Initial residual = 0.0192388, Final residual = 0.000134546, No Iterations 12
bounding phit, min: 0 max: 2.89719 average: 1.20657
ExecutionTime = 132.68 s  ClockTime = 133 s

Time = 64

smoothSolver:  Solving for Ux, Initial residual = 0.000402832, Final residual = 2.82729e-06, No Iterations 11
smoothSolver:  Solving for Uy, Initial residual = 0.000556368, Final residual = 5.13971e-06, No Iterations 11
GAMG:  Solving for p, Initial residual = 0.00208366, Final residual = 2.08291e-05, No Iterations 815
time step continuity errors : sum local = 1.25906e-06, global = -1.68541e-07, cumulative = -0.0015659
smoothSolver:  Solving for epsilon, Initial residual = 0.00594188, Final residual = 5.92373e-05, No Iterations 8
smoothSolver:  Solving for k, Initial residual = 0.0229325, Final residual = 0.00015511, No Iterations 12
smoothSolver:  Solving for f, Initial residual = 0.0298053, Final residual = 0.000204225, No Iterations 8
bounding f, min: -0.0629198 max: 2.55523 average: 0.529192
smoothSolver:  Solving for phit, Initial residual = 0.0185749, Final residual = 0.000128237, No Iterations 12
bounding phit, min: 0 max: 2.85799 average: 1.20703
ExecutionTime = 134.37 s  ClockTime = 134 s

Time = 65

smoothSolver:  Solving for Ux, Initial residual = 0.000399618, Final residual = 2.90935e-06, No Iterations 11
smoothSolver:  Solving for Uy, Initial residual = 0.000550692, Final residual = 5.23339e-06, No Iterations 11
GAMG:  Solving for p, Initial residual = 0.00179582, Final residual = 1.79547e-05, No Iterations 836
time step continuity errors : sum local = 1.14543e-06, global = 6.70662e-08, cumulative = -0.00156583
smoothSolver:  Solving for epsilon, Initial residual = 0.00571485, Final residual = 4.80228e-05, No Iterations 9
smoothSolver:  Solving for k, Initial residual = 0.0239622, Final residual = 0.000160227, No Iterations 12
smoothSolver:  Solving for f, Initial residual = 0.0293641, Final residual = 0.000283241, No Iterations 7
bounding f, min: -0.075389 max: 2.6042 average: 0.513754
smoothSolver:  Solving for phit, Initial residual = 0.018001, Final residual = 0.000122857, No Iterations 12
bounding phit, min: 0 max: 2.8191 average: 1.2075
ExecutionTime = 136.13 s  ClockTime = 136 s

Time = 66

smoothSolver:  Solving for Ux, Initial residual = 0.000427303, Final residual = 2.94393e-06, No Iterations 11
smoothSolver:  Solving for Uy, Initial residual = 0.000553012, Final residual = 5.23519e-06, No Iterations 11
GAMG:  Solving for p, Initial residual = 0.00165808, Final residual = 2.17804e-05, No Iterations 1000
time step continuity errors : sum local = 1.44005e-06, global = 1.93005e-07, cumulative = -0.00156564
smoothSolver:  Solving for epsilon, Initial residual = 0.00782774, Final residual = 6.56374e-05, No Iterations 9
smoothSolver:  Solving for k, Initial residual = 0.024822, Final residual = 0.000165003, No Iterations 12
smoothSolver:  Solving for f, Initial residual = 0.0271276, Final residual = 0.000177061, No Iterations 8
bounding f, min: -0.0859126 max: 2.46335 average: 0.492019
smoothSolver:  Solving for phit, Initial residual = 0.017356, Final residual = 0.000116429, No Iterations 12
bounding phit, min: 0 max: 2.77994 average: 1.20768
ExecutionTime = 138.18 s  ClockTime = 138 s

Time = 67

smoothSolver:  Solving for Ux, Initial residual = 0.000394767, Final residual = 2.90851e-06, No Iterations 11
smoothSolver:  Solving for Uy, Initial residual = 0.000571001, Final residual = 5.24962e-06, No Iterations 11
GAMG:  Solving for p, Initial residual = 0.0016327, Final residual = 4.35691e-05, No Iterations 1000
time step continuity errors : sum local = 2.84902e-06, global = 3.4458e-07, cumulative = -0.00156529
smoothSolver:  Solving for epsilon, Initial residual = 0.00773541, Final residual = 7.36054e-05, No Iterations 9
smoothSolver:  Solving for k, Initial residual = 0.0254886, Final residual = 0.000169181, No Iterations 12
smoothSolver:  Solving for f, Initial residual = 0.0284349, Final residual = 0.000199171, No Iterations 8
bounding f, min: -0.0968696 max: 2.29091 average: 0.46744
smoothSolver:  Solving for phit, Initial residual = 0.0164364, Final residual = 0.000162326, No Iterations 11
bounding phit, min: 0 max: 2.74162 average: 1.20726
ExecutionTime = 140.24 s  ClockTime = 140 s

Time = 68

smoothSolver:  Solving for Ux, Initial residual = 0.000393757, Final residual = 3.12923e-06, No Iterations 11
smoothSolver:  Solving for Uy, Initial residual = 0.000549903, Final residual = 5.08538e-06, No Iterations 11
GAMG:  Solving for p, Initial residual = 0.00155077, Final residual = 4.72047e-05, No Iterations 1000
time step continuity errors : sum local = 2.96123e-06, global = 3.15648e-07, cumulative = -0.00156497
smoothSolver:  Solving for epsilon, Initial residual = 0.00651245, Final residual = 4.4771e-05, No Iterations 10
smoothSolver:  Solving for k, Initial residual = 0.0261998, Final residual = 0.000173791, No Iterations 12
smoothSolver:  Solving for f, Initial residual = 0.0312672, Final residual = 0.000214258, No Iterations 8
bounding f, min: -0.104994 max: 2.17581 average: 0.445064
smoothSolver:  Solving for phit, Initial residual = 0.0154536, Final residual = 0.000146672, No Iterations 11
bounding phit, min: 0 max: 2.70306 average: 1.2062
ExecutionTime = 142.31 s  ClockTime = 142 s

Time = 69

smoothSolver:  Solving for Ux, Initial residual = 0.00043654, Final residual = 3.62095e-06, No Iterations 11
smoothSolver:  Solving for Uy, Initial residual = 0.000511931, Final residual = 4.73852e-06, No Iterations 11
GAMG:  Solving for p, Initial residual = 0.00154434, Final residual = 3.2104e-05, No Iterations 1000
time step continuity errors : sum local = 1.9542e-06, global = 1.88954e-07, cumulative = -0.00156479
smoothSolver:  Solving for epsilon, Initial residual = 0.00546576, Final residual = 3.96262e-05, No Iterations 10
smoothSolver:  Solving for k, Initial residual = 0.0271439, Final residual = 0.000270875, No Iterations 11
smoothSolver:  Solving for f, Initial residual = 0.026608, Final residual = 0.00020315, No Iterations 8
bounding f, min: -0.0968398 max: 2.09444 average: 0.428278
smoothSolver:  Solving for phit, Initial residual = 0.0146974, Final residual = 0.000132168, No Iterations 11
bounding phit, min: 0 max: 2.66524 average: 1.20469
ExecutionTime = 144.37 s  ClockTime = 144 s

Time = 70

smoothSolver:  Solving for Ux, Initial residual = 0.000456982, Final residual = 3.97591e-06, No Iterations 11
smoothSolver:  Solving for Uy, Initial residual = 0.000506184, Final residual = 4.56078e-06, No Iterations 11
GAMG:  Solving for p, Initial residual = 0.00165156, Final residual = 1.67781e-05, No Iterations 1000
time step continuity errors : sum local = 1.02904e-06, global = 9.36401e-08, cumulative = -0.00156469
smoothSolver:  Solving for epsilon, Initial residual = 0.00541071, Final residual = 3.62518e-05, No Iterations 10
smoothSolver:  Solving for k, Initial residual = 0.0280759, Final residual = 0.000278876, No Iterations 11
smoothSolver:  Solving for f, Initial residual = 0.020398, Final residual = 0.000171771, No Iterations 8
bounding f, min: -0.0823972 max: 2.24361 average: 0.416078
smoothSolver:  Solving for phit, Initial residual = 0.0141664, Final residual = 0.000121199, No Iterations 11
bounding phit, min: 0 max: 2.62786 average: 1.20294
ExecutionTime = 146.43 s  ClockTime = 146 s

Time = 71

smoothSolver:  Solving for Ux, Initial residual = 0.000476021, Final residual = 4.11938e-06, No Iterations 11
smoothSolver:  Solving for Uy, Initial residual = 0.000495485, Final residual = 4.51642e-06, No Iterations 11
GAMG:  Solving for p, Initial residual = 0.00157637, Final residual = 1.5757e-05, No Iterations 794
time step continuity errors : sum local = 9.99195e-07, global = 7.9529e-08, cumulative = -0.00156461
smoothSolver:  Solving for epsilon, Initial residual = 0.00545642, Final residual = 3.92294e-05, No Iterations 10
smoothSolver:  Solving for k, Initial residual = 0.0291718, Final residual = 0.000286278, No Iterations 11
smoothSolver:  Solving for f, Initial residual = 0.0203574, Final residual = 0.000143649, No Iterations 8
bounding f, min: -0.0677557 max: 2.40346 average: 0.403626
smoothSolver:  Solving for phit, Initial residual = 0.0138634, Final residual = 0.000114038, No Iterations 11
bounding phit, min: 0 max: 2.59133 average: 1.20111
ExecutionTime = 148.08 s  ClockTime = 148 s

Time = 72

smoothSolver:  Solving for Ux, Initial residual = 0.000498639, Final residual = 4.13887e-06, No Iterations 11
smoothSolver:  Solving for Uy, Initial residual = 0.000481246, Final residual = 4.53949e-06, No Iterations 11
GAMG:  Solving for p, Initial residual = 0.0014147, Final residual = 1.71213e-05, No Iterations 1000
time step continuity errors : sum local = 1.11667e-06, global = 1.25642e-07, cumulative = -0.00156449
smoothSolver:  Solving for epsilon, Initial residual = 0.00670413, Final residual = 4.56586e-05, No Iterations 10
smoothSolver:  Solving for k, Initial residual = 0.0302409, Final residual = 0.000294016, No Iterations 11
smoothSolver:  Solving for f, Initial residual = 0.0180588, Final residual = 0.000129355, No Iterations 8
bounding f, min: -0.0617413 max: 2.36828 average: 0.387805
smoothSolver:  Solving for phit, Initial residual = 0.0136761, Final residual = 0.000108763, No Iterations 11
bounding phit, min: 0 max: 2.56276 average: 1.199
ExecutionTime = 150.14 s  ClockTime = 150 s

Time = 73

smoothSolver:  Solving for Ux, Initial residual = 0.000496238, Final residual = 4.15573e-06, No Iterations 11
smoothSolver:  Solving for Uy, Initial residual = 0.000502465, Final residual = 4.55503e-06, No Iterations 11
GAMG:  Solving for p, Initial residual = 0.00143856, Final residual = 2.84718e-05, No Iterations 1000
time step continuity errors : sum local = 1.85588e-06, global = 2.34763e-07, cumulative = -0.00156425
smoothSolver:  Solving for epsilon, Initial residual = 0.00747345, Final residual = 5.03031e-05, No Iterations 10
smoothSolver:  Solving for k, Initial residual = 0.0310686, Final residual = 0.000300884, No Iterations 11
smoothSolver:  Solving for f, Initial residual = 0.0191289, Final residual = 0.000133985, No Iterations 8
bounding f, min: -0.0720461 max: 2.20567 average: 0.369291
smoothSolver:  Solving for phit, Initial residual = 0.0134221, Final residual = 0.000103813, No Iterations 11
bounding phit, min: 0 max: 2.56553 average: 1.1964
ExecutionTime = 152.19 s  ClockTime = 152 s

Time = 74

smoothSolver:  Solving for Ux, Initial residual = 0.000503798, Final residual = 4.34064e-06, No Iterations 11
smoothSolver:  Solving for Uy, Initial residual = 0.000519312, Final residual = 4.65918e-06, No Iterations 11
GAMG:  Solving for p, Initial residual = 0.00145646, Final residual = 3.4982e-05, No Iterations 1000
time step continuity errors : sum local = 2.22289e-06, global = 2.62204e-07, cumulative = -0.00156399
smoothSolver:  Solving for epsilon, Initial residual = 0.00684323, Final residual = 5.1108e-05, No Iterations 10
smoothSolver:  Solving for k, Initial residual = 0.0319163, Final residual = 0.000308412, No Iterations 11
smoothSolver:  Solving for f, Initial residual = 0.021612, Final residual = 0.000140511, No Iterations 8
bounding f, min: -0.0809765 max: 2.07198 average: 0.351266
smoothSolver:  Solving for phit, Initial residual = 0.013018, Final residual = 9.73235e-05, No Iterations 11
bounding phit, min: 0 max: 2.57306 average: 1.19323
ExecutionTime = 154.26 s  ClockTime = 154 s

Time = 75

smoothSolver:  Solving for Ux, Initial residual = 0.000525458, Final residual = 4.68909e-06, No Iterations 11
smoothSolver:  Solving for Uy, Initial residual = 0.00049595, Final residual = 4.55545e-06, No Iterations 11
GAMG:  Solving for p, Initial residual = 0.00140956, Final residual = 3.24044e-05, No Iterations 1000
time step continuity errors : sum local = 2.00026e-06, global = 2.15029e-07, cumulative = -0.00156378
smoothSolver:  Solving for epsilon, Initial residual = 0.00611213, Final residual = 4.83175e-05, No Iterations 10
smoothSolver:  Solving for k, Initial residual = 0.0328, Final residual = 0.000315243, No Iterations 11
smoothSolver:  Solving for f, Initial residual = 0.0187487, Final residual = 0.000134817, No Iterations 8
bounding f, min: -0.0907048 max: 2.00054 average: 0.336798
smoothSolver:  Solving for phit, Initial residual = 0.0126322, Final residual = 9.09833e-05, No Iterations 11
bounding phit, min: 0 max: 2.5806 average: 1.18959
ExecutionTime = 156.33 s  ClockTime = 156 s

Time = 76

smoothSolver:  Solving for Ux, Initial residual = 0.000546864, Final residual = 5.01067e-06, No Iterations 11
[...]
GAMG:  Solving for p, Initial residual = 1.10612e-05, Final residual = 9.88934e-07, No Iterations 51
time step continuity errors : sum local = 7.03828e-08, global = 4.08476e-09, cumulative = -0.0015323
smoothSolver:  Solving for epsilon, Initial residual = 4.9292e-06, Final residual = 9.45692e-07, No Iterations 1
smoothSolver:  Solving for k, Initial residual = 2.8301e-05, Final residual = 8.57939e-07, No Iterations 5
smoothSolver:  Solving for f, Initial residual = 8.06973e-05, Final residual = 9.5808e-07, No Iterations 7
bounding f, min: -0.0282091 max: 1.10481 average: 0.210352
smoothSolver:  Solving for phit, Initial residual = 3.89372e-05, Final residual = 9.91412e-07, No Iterations 5
bounding phit, min: 0 max: 2.68187 average: 0.415425
ExecutionTime = 906.13 s  ClockTime = 906 s

Time = 1983

smoothSolver:  Solving for Ux, Initial residual = 2.93296e-06, Final residual = 7.93853e-07, No Iterations 2
smoothSolver:  Solving for Uy, Initial residual = 1.02596e-05, Final residual = 6.89404e-07, No Iterations 4
GAMG:  Solving for p, Initial residual = 1.08319e-05, Final residual = 9.87654e-07, No Iterations 65
time step continuity errors : sum local = 7.02917e-08, global = -2.04837e-09, cumulative = -0.0015323
smoothSolver:  Solving for epsilon, Initial residual = 4.91409e-06, Final residual = 3.3631e-07, No Iterations 2
smoothSolver:  Solving for k, Initial residual = 2.91345e-05, Final residual = 8.41693e-07, No Iterations 5
smoothSolver:  Solving for f, Initial residual = 7.90155e-05, Final residual = 9.46985e-07, No Iterations 7
bounding f, min: -0.0282069 max: 1.1048 average: 0.210352
smoothSolver:  Solving for phit, Initial residual = 3.92429e-05, Final residual = 9.81565e-07, No Iterations 5
bounding phit, min: 0 max: 2.68187 average: 0.415425
ExecutionTime = 906.33 s  ClockTime = 906 s

Time = 1984

smoothSolver:  Solving for Ux, Initial residual = 2.93513e-06, Final residual = 8.08055e-07, No Iterations 2
smoothSolver:  Solving for Uy, Initial residual = 1.05665e-05, Final residual = 7.01612e-07, No Iterations 4
GAMG:  Solving for p, Initial residual = 1.08624e-05, Final residual = 9.93189e-07, No Iterations 73
time step continuity errors : sum local = 7.06856e-08, global = 1.42899e-09, cumulative = -0.0015323
smoothSolver:  Solving for epsilon, Initial residual = 4.56907e-06, Final residual = 9.10546e-07, No Iterations 1
smoothSolver:  Solving for k, Initial residual = 2.69555e-05, Final residual = 8.06606e-07, No Iterations 5
smoothSolver:  Solving for f, Initial residual = 8.09051e-05, Final residual = 9.6091e-07, No Iterations 7
bounding f, min: -0.0282047 max: 1.1048 average: 0.210352
smoothSolver:  Solving for phit, Initial residual = 3.95303e-05, Final residual = 9.74066e-07, No Iterations 5
bounding phit, min: 0 max: 2.68187 average: 0.415425
ExecutionTime = 906.53 s  ClockTime = 907 s

Time = 1985

smoothSolver:  Solving for Ux, Initial residual = 2.90942e-06, Final residual = 7.86637e-07, No Iterations 2
smoothSolver:  Solving for Uy, Initial residual = 1.10709e-05, Final residual = 7.12109e-07, No Iterations 4
GAMG:  Solving for p, Initial residual = 9.92013e-06, Final residual = 9.95358e-07, No Iterations 77
time step continuity errors : sum local = 7.08399e-08, global = -1.09277e-09, cumulative = -0.0015323
smoothSolver:  Solving for epsilon, Initial residual = 4.65407e-06, Final residual = 8.66644e-07, No Iterations 1
smoothSolver:  Solving for k, Initial residual = 2.62068e-05, Final residual = 8.12227e-07, No Iterations 5
smoothSolver:  Solving for f, Initial residual = 7.84932e-05, Final residual = 9.67034e-07, No Iterations 7
bounding f, min: -0.0281984 max: 1.1048 average: 0.210352
smoothSolver:  Solving for phit, Initial residual = 3.80411e-05, Final residual = 8.98977e-07, No Iterations 5
bounding phit, min: 0 max: 2.68187 average: 0.415425
ExecutionTime = 906.76 s  ClockTime = 907 s

Time = 1986

smoothSolver:  Solving for Ux, Initial residual = 2.87984e-06, Final residual = 7.73376e-07, No Iterations 2
smoothSolver:  Solving for Uy, Initial residual = 1.17979e-05, Final residual = 7.39332e-07, No Iterations 4
GAMG:  Solving for p, Initial residual = 1.07466e-05, Final residual = 9.87288e-07, No Iterations 72
time step continuity errors : sum local = 7.02655e-08, global = -1.22513e-09, cumulative = -0.0015323
smoothSolver:  Solving for epsilon, Initial residual = 4.77994e-06, Final residual = 9.18687e-07, No Iterations 1
smoothSolver:  Solving for k, Initial residual = 2.75089e-05, Final residual = 8.11272e-07, No Iterations 5
smoothSolver:  Solving for f, Initial residual = 8.03138e-05, Final residual = 9.51598e-07, No Iterations 7
bounding f, min: -0.0281937 max: 1.1048 average: 0.210352
smoothSolver:  Solving for phit, Initial residual = 3.7461e-05, Final residual = 9.36865e-07, No Iterations 5
bounding phit, min: 0 max: 2.68187 average: 0.415425
ExecutionTime = 906.96 s  ClockTime = 907 s

Time = 1987

smoothSolver:  Solving for Ux, Initial residual = 2.84192e-06, Final residual = 7.75278e-07, No Iterations 2
smoothSolver:  Solving for Uy, Initial residual = 1.21177e-05, Final residual = 7.29436e-07, No Iterations 4
GAMG:  Solving for p, Initial residual = 1.10913e-05, Final residual = 9.94598e-07, No Iterations 60
time step continuity errors : sum local = 7.07858e-08, global = -2.51074e-09, cumulative = -0.00153231
smoothSolver:  Solving for epsilon, Initial residual = 4.73444e-06, Final residual = 9.6715e-07, No Iterations 1
smoothSolver:  Solving for k, Initial residual = 2.7976e-05, Final residual = 8.12348e-07, No Iterations 5
smoothSolver:  Solving for f, Initial residual = 7.88278e-05, Final residual = 9.43986e-07, No Iterations 7
bounding f, min: -0.0281864 max: 1.1048 average: 0.210352
smoothSolver:  Solving for phit, Initial residual = 3.86768e-05, Final residual = 9.61484e-07, No Iterations 5
bounding phit, min: 0 max: 2.68187 average: 0.415425
ExecutionTime = 907.14 s  ClockTime = 907 s

Time = 1988

smoothSolver:  Solving for Ux, Initial residual = 2.87563e-06, Final residual = 7.89928e-07, No Iterations 2
smoothSolver:  Solving for Uy, Initial residual = 1.17023e-05, Final residual = 7.18225e-07, No Iterations 4
GAMG:  Solving for p, Initial residual = 1.12893e-05, Final residual = 9.96868e-07, No Iterations 50
time step continuity errors : sum local = 7.09473e-08, global = -4.70711e-09, cumulative = -0.00153231
smoothSolver:  Solving for epsilon, Initial residual = 4.76355e-06, Final residual = 9.73326e-07, No Iterations 1
smoothSolver:  Solving for k, Initial residual = 2.73537e-05, Final residual = 8.38684e-07, No Iterations 5
smoothSolver:  Solving for f, Initial residual = 8.04914e-05, Final residual = 9.5587e-07, No Iterations 7
bounding f, min: -0.0281828 max: 1.1048 average: 0.210352
smoothSolver:  Solving for phit, Initial residual = 3.88633e-05, Final residual = 9.45447e-07, No Iterations 5
bounding phit, min: 0 max: 2.68187 average: 0.415425
ExecutionTime = 907.3 s  ClockTime = 907 s

Time = 1989

smoothSolver:  Solving for Ux, Initial residual = 2.92437e-06, Final residual = 7.93462e-07, No Iterations 2
smoothSolver:  Solving for Uy, Initial residual = 1.08827e-05, Final residual = 6.98214e-07, No Iterations 4
GAMG:  Solving for p, Initial residual = 1.12174e-05, Final residual = 9.77438e-07, No Iterations 44
time step continuity errors : sum local = 6.95645e-08, global = -5.67725e-09, cumulative = -0.00153232
smoothSolver:  Solving for epsilon, Initial residual = 4.87925e-06, Final residual = 9.57392e-07, No Iterations 1
smoothSolver:  Solving for k, Initial residual = 2.76694e-05, Final residual = 8.69775e-07, No Iterations 5
smoothSolver:  Solving for f, Initial residual = 7.79331e-05, Final residual = 9.6206e-07, No Iterations 7
bounding f, min: -0.0281785 max: 1.1048 average: 0.210352
smoothSolver:  Solving for phit, Initial residual = 3.85281e-05, Final residual = 9.65357e-07, No Iterations 5
bounding phit, min: 0 max: 2.68187 average: 0.415425
ExecutionTime = 907.45 s  ClockTime = 907 s

Time = 1990

smoothSolver:  Solving for Ux, Initial residual = 2.91178e-06, Final residual = 7.87314e-07, No Iterations 2
smoothSolver:  Solving for Uy, Initial residual = 1.02319e-05, Final residual = 6.64668e-07, No Iterations 4
GAMG:  Solving for p, Initial residual = 1.08581e-05, Final residual = 9.91383e-07, No Iterations 58
time step continuity errors : sum local = 7.0557e-08, global = -3.00436e-09, cumulative = -0.00153232
smoothSolver:  Solving for epsilon, Initial residual = 4.97976e-06, Final residual = 9.8614e-07, No Iterations 1
smoothSolver:  Solving for k, Initial residual = 2.89153e-05, Final residual = 8.58137e-07, No Iterations 5
smoothSolver:  Solving for f, Initial residual = 8.04119e-05, Final residual = 9.49348e-07, No Iterations 7
bounding f, min: -0.0281791 max: 1.1048 average: 0.210352
smoothSolver:  Solving for phit, Initial residual = 3.88002e-05, Final residual = 9.92918e-07, No Iterations 5
bounding phit, min: 0 max: 2.68187 average: 0.415425
ExecutionTime = 907.63 s  ClockTime = 908 s

Time = 1991

smoothSolver:  Solving for Ux, Initial residual = 2.91191e-06, Final residual = 7.96289e-07, No Iterations 2
smoothSolver:  Solving for Uy, Initial residual = 1.01591e-05, Final residual = 6.71336e-07, No Iterations 4
GAMG:  Solving for p, Initial residual = 1.07134e-05, Final residual = 9.98938e-07, No Iterations 71
time step continuity errors : sum local = 7.10947e-08, global = 1.66662e-09, cumulative = -0.00153232
smoothSolver:  Solving for epsilon, Initial residual = 5.05026e-06, Final residual = 3.45594e-07, No Iterations 2
smoothSolver:  Solving for k, Initial residual = 2.94605e-05, Final residual = 8.62594e-07, No Iterations 5
smoothSolver:  Solving for f, Initial residual = 7.92465e-05, Final residual = 9.53222e-07, No Iterations 7
bounding f, min: -0.0281798 max: 1.1048 average: 0.210352
smoothSolver:  Solving for phit, Initial residual = 3.92305e-05, Final residual = 9.92176e-07, No Iterations 5
bounding phit, min: 0 max: 2.68187 average: 0.415425
ExecutionTime = 907.83 s  ClockTime = 908 s

Time = 1992

smoothSolver:  Solving for Ux, Initial residual = 2.98294e-06, Final residual = 8.20659e-07, No Iterations 2
smoothSolver:  Solving for Uy, Initial residual = 1.08058e-05, Final residual = 7.0023e-07, No Iterations 4
GAMG:  Solving for p, Initial residual = 1.11176e-05, Final residual = 9.898e-07, No Iterations 78
time step continuity errors : sum local = 7.04444e-08, global = -1.2287e-09, cumulative = -0.00153232
smoothSolver:  Solving for epsilon, Initial residual = 4.66637e-06, Final residual = 9.11759e-07, No Iterations 1
smoothSolver:  Solving for k, Initial residual = 2.74328e-05, Final residual = 8.5696e-07, No Iterations 5
smoothSolver:  Solving for f, Initial residual = 8.12877e-05, Final residual = 9.82437e-07, No Iterations 7
bounding f, min: -0.0281852 max: 1.1048 average: 0.210352
smoothSolver:  Solving for phit, Initial residual = 4.03501e-05, Final residual = 9.85705e-07, No Iterations 5
bounding phit, min: 0 max: 2.68187 average: 0.415425
ExecutionTime = 908.04 s  ClockTime = 908 s

Time = 1993

smoothSolver:  Solving for Ux, Initial residual = 2.97036e-06, Final residual = 7.9752e-07, No Iterations 2
smoothSolver:  Solving for Uy, Initial residual = 1.15776e-05, Final residual = 7.36584e-07, No Iterations 4
GAMG:  Solving for p, Initial residual = 1.05304e-05, Final residual = 9.92599e-07, No Iterations 78
time step continuity errors : sum local = 7.06436e-08, global = -1.09279e-09, cumulative = -0.00153232
smoothSolver:  Solving for epsilon, Initial residual = 4.83135e-06, Final residual = 9.0164e-07, No Iterations 1
smoothSolver:  Solving for k, Initial residual = 2.81477e-05, Final residual = 8.48882e-07, No Iterations 5
smoothSolver:  Solving for f, Initial residual = 7.88573e-05, Final residual = 9.77358e-07, No Iterations 7
bounding f, min: -0.0281898 max: 1.1048 average: 0.210352
smoothSolver:  Solving for phit, Initial residual = 3.83258e-05, Final residual = 9.52954e-07, No Iterations 5
bounding phit, min: 0 max: 2.68187 average: 0.415425
ExecutionTime = 908.26 s  ClockTime = 908 s

Time = 1994

smoothSolver:  Solving for Ux, Initial residual = 2.94722e-06, Final residual = 7.96702e-07, No Iterations 2
smoothSolver:  Solving for Uy, Initial residual = 1.22394e-05, Final residual = 7.56016e-07, No Iterations 4
GAMG:  Solving for p, Initial residual = 1.14301e-05, Final residual = 9.89233e-07, No Iterations 68
time step continuity errors : sum local = 7.04041e-08, global = -1.75321e-09, cumulative = -0.00153232
smoothSolver:  Solving for epsilon, Initial residual = 4.97219e-06, Final residual = 9.8005e-07, No Iterations 1
smoothSolver:  Solving for k, Initial residual = 2.9637e-05, Final residual = 8.53858e-07, No Iterations 5
smoothSolver:  Solving for f, Initial residual = 8.1125e-05, Final residual = 9.55893e-07, No Iterations 7
bounding f, min: -0.0281976 max: 1.10481 average: 0.210352
smoothSolver:  Solving for phit, Initial residual = 3.91044e-05, Final residual = 9.87749e-07, No Iterations 5
bounding phit, min: 0 max: 2.68187 average: 0.415425
ExecutionTime = 908.46 s  ClockTime = 908 s

Time = 1995

smoothSolver:  Solving for Ux, Initial residual = 2.98092e-06, Final residual = 8.15507e-07, No Iterations 2
smoothSolver:  Solving for Uy, Initial residual = 1.2232e-05, Final residual = 7.40194e-07, No Iterations 4
GAMG:  Solving for p, Initial residual = 1.18195e-05, Final residual = 9.95042e-07, No Iterations 55
time step continuity errors : sum local = 7.08175e-08, global = 3.71643e-09, cumulative = -0.00153232
smoothSolver:  Solving for epsilon, Initial residual = 4.98725e-06, Final residual = 3.3559e-07, No Iterations 2
smoothSolver:  Solving for k, Initial residual = 2.94258e-05, Final residual = 8.67518e-07, No Iterations 5
smoothSolver:  Solving for f, Initial residual = 7.9592e-05, Final residual = 9.5858e-07, No Iterations 7
bounding f, min: -0.0282026 max: 1.10481 average: 0.210352
smoothSolver:  Solving for phit, Initial residual = 4.05215e-05, Final residual = 5.16365e-07, No Iterations 6
bounding phit, min: 0 max: 2.68187 average: 0.415425
ExecutionTime = 908.64 s  ClockTime = 909 s

Time = 1996

smoothSolver:  Solving for Ux, Initial residual = 3.05012e-06, Final residual = 8.34378e-07, No Iterations 2
smoothSolver:  Solving for Uy, Initial residual = 1.15699e-05, Final residual = 7.30817e-07, No Iterations 4
GAMG:  Solving for p, Initial residual = 1.19435e-05, Final residual = 9.93036e-07, No Iterations 43
time step continuity errors : sum local = 7.06747e-08, global = -5.87296e-09, cumulative = -0.00153232
smoothSolver:  Solving for epsilon, Initial residual = 4.62832e-06, Final residual = 8.99631e-07, No Iterations 1
smoothSolver:  Solving for k, Initial residual = 2.76233e-05, Final residual = 8.63284e-07, No Iterations 5
smoothSolver:  Solving for f, Initial residual = 8.06134e-05, Final residual = 9.72603e-07, No Iterations 7
bounding f, min: -0.0282067 max: 1.10481 average: 0.210352
smoothSolver:  Solving for phit, Initial residual = 4.01013e-05, Final residual = 9.98255e-07, No Iterations 5
bounding phit, min: 0 max: 2.68187 average: 0.415425
ExecutionTime = 908.78 s  ClockTime = 909 s

Time = 1997

smoothSolver:  Solving for Ux, Initial residual = 2.99508e-06, Final residual = 8.01507e-07, No Iterations 2
smoothSolver:  Solving for Uy, Initial residual = 1.04693e-05, Final residual = 6.86676e-07, No Iterations 4
GAMG:  Solving for p, Initial residual = 1.04668e-05, Final residual = 9.90049e-07, No Iterations 51
time step continuity errors : sum local = 7.04621e-08, global = 4.09232e-09, cumulative = -0.00153232
smoothSolver:  Solving for epsilon, Initial residual = 4.8938e-06, Final residual = 9.10534e-07, No Iterations 1
smoothSolver:  Solving for k, Initial residual = 2.81732e-05, Final residual = 8.4461e-07, No Iterations 5
smoothSolver:  Solving for f, Initial residual = 7.86528e-05, Final residual = 9.62908e-07, No Iterations 7
bounding f, min: -0.0282073 max: 1.10481 average: 0.210352
smoothSolver:  Solving for phit, Initial residual = 3.84586e-05, Final residual = 9.64066e-07, No Iterations 5
bounding phit, min: 0 max: 2.68187 average: 0.415425
ExecutionTime = 908.95 s  ClockTime = 909 s

Time = 1998

smoothSolver:  Solving for Ux, Initial residual = 2.94597e-06, Final residual = 7.94532e-07, No Iterations 2
smoothSolver:  Solving for Uy, Initial residual = 1.0095e-05, Final residual = 6.81091e-07, No Iterations 4
GAMG:  Solving for p, Initial residual = 1.06312e-05, Final residual = 9.94691e-07, No Iterations 65
time step continuity errors : sum local = 7.07925e-08, global = -2.08656e-09, cumulative = -0.00153232
smoothSolver:  Solving for epsilon, Initial residual = 4.97644e-06, Final residual = 9.94657e-07, No Iterations 1
smoothSolver:  Solving for k, Initial residual = 2.91128e-05, Final residual = 8.30952e-07, No Iterations 5
smoothSolver:  Solving for f, Initial residual = 8.11137e-05, Final residual = 9.47343e-07, No Iterations 7
bounding f, min: -0.0282079 max: 1.1048 average: 0.210352
smoothSolver:  Solving for phit, Initial residual = 3.93363e-05, Final residual = 9.93333e-07, No Iterations 5
bounding phit, min: 0 max: 2.68187 average: 0.415425
ExecutionTime = 909.14 s  ClockTime = 909 s

Time = 1999

smoothSolver:  Solving for Ux, Initial residual = 2.93915e-06, Final residual = 8.08008e-07, No Iterations 2
smoothSolver:  Solving for Uy, Initial residual = 1.0497e-05, Final residual = 7.01353e-07, No Iterations 4
GAMG:  Solving for p, Initial residual = 1.08689e-05, Final residual = 9.89315e-07, No Iterations 74
time step continuity errors : sum local = 7.04099e-08, global = -1.44006e-09, cumulative = -0.00153232
smoothSolver:  Solving for epsilon, Initial residual = 5.00959e-06, Final residual = 3.32142e-07, No Iterations 2
smoothSolver:  Solving for k, Initial residual = 2.85378e-05, Final residual = 8.56263e-07, No Iterations 5
smoothSolver:  Solving for f, Initial residual = 7.9485e-05, Final residual = 9.57613e-07, No Iterations 7
bounding f, min: -0.0282034 max: 1.1048 average: 0.210352
smoothSolver:  Solving for phit, Initial residual = 3.93766e-05, Final residual = 9.56168e-07, No Iterations 5
bounding phit, min: 0 max: 2.68187 average: 0.415425
ExecutionTime = 909.35 s  ClockTime = 909 s

Time = 2000

smoothSolver:  Solving for Ux, Initial residual = 2.99878e-06, Final residual = 8.22181e-07, No Iterations 2
smoothSolver:  Solving for Uy, Initial residual = 1.12562e-05, Final residual = 7.19622e-07, No Iterations 4
GAMG:  Solving for p, Initial residual = 1.11459e-05, Final residual = 9.90551e-07, No Iterations 78
time step continuity errors : sum local = 7.04978e-08, global = -1.1483e-09, cumulative = -0.00153232
smoothSolver:  Solving for epsilon, Initial residual = 4.57186e-06, Final residual = 8.79263e-07, No Iterations 1
smoothSolver:  Solving for k, Initial residual = 2.67232e-05, Final residual = 8.37346e-07, No Iterations 5
smoothSolver:  Solving for f, Initial residual = 8.05967e-05, Final residual = 9.69159e-07, No Iterations 7
bounding f, min: -0.0282002 max: 1.1048 average: 0.210352
smoothSolver:  Solving for phit, Initial residual = 3.99859e-05, Final residual = 9.7552e-07, No Iterations 5
bounding phit, min: 0 max: 2.68187 average: 0.415425
ExecutionTime = 909.65 s  ClockTime = 910 s

wallShearStress wallShearStress write:
    writing field wallShearStress
    min/max(lowerWall) = (-0.0257894 -0.000344438 -1.68176e-19), (0.000553693 0.000604792 1.56613e-19)
    min/max(upperWall) = (-0.0257895 -1.92753e-06 -1.49139e-22), (-0.000630069 0.000344432 1.78525e-22)
    functionObjects::turbulenceFields turbulenceFields1 writing field: turbulenceProperties:R

    functionObjects::components components1 writing field: Ux
    functionObjects::components components1 writing field: Uy
    functionObjects::components components1 writing field: Uz
End

