/*---------------------------------------------------------------------------*\
| =========                 |                                                 |
| \\      /  F ield         | OpenFOAM: The Open Source CFD Toolbox           |
|  \\    /   O peration     | Version:  2412                                  |
|   \\  /    A nd           | Website:  www.openfoam.com                      |
|    \\/     M anipulation  |                                                 |
\*---------------------------------------------------------------------------*/
Build  : _8dbc61e11c-20241220 OPENFOAM=2412 version=v2412
Arch   : "LSB;label=32;scalar=64"
Exec   : fluentMeshToFoam Diffuser.msh
Date   : Jun 09 2025
Time   : 14:46:29
Host   : WORKHORSE
PID    : 4189289
I/O    : uncollated
Case   : /home/rokot/OpenFOAM/OpenFOAM-v2412/rokot-24/Diffuser/kEpsilonPhitF
nProcs : 1
trapFpe: Floating point exception trapping enabled (FOAM_SIGFPE).
fileModificationChecking : Monitoring run-time modified files using timeStampMaster (fileModificationSkew 5, maxFileModificationPolls 20)
allowSystemOperations : Allowing user-supplied system call operations

// * * * * * * * * * * * * * * * * * * * * * * * * * * * * * * * * * * * * * //
Create time

Dimension of grid: 2
Number of points: 32802
Reading points
number of faces: 65041
Reading mixed faces
Reading mixed faces
Reading mixed faces
Reading mixed faces
Reading mixed faces
Number of cells: 32240
Other readCellGroupData: 2 1 7df0 1 3
Reading uniform cells
Read zone1:2 name:fluid patchTypeID:fluid
Reading zone data
Read zone1:3 name:lowerWall patchTypeID:wall
Reading zone data
Read zone1:4 name:upperWall patchTypeID:wall
Reading zone data
Read zone1:5 name:outlet patchTypeID:pressure-outlet
Reading zone data
Read zone1:6 name:inlet patchTypeID:velocity-inlet
Reading zone data
Read zone1:8 name:default-interior patchTypeID:interior
Reading zone data


FINISHED LEXING


dimension of grid: 2
Grid is 2-D. Extruding in z-direction by: 3.77509
Creating shapes for 2-D cells
Building patch-less mesh...--> FOAM Warning : 
    From Foam::polyMesh::polyMesh(const Foam::IOobject&, Foam::pointField&&, const Foam::cellShapeList&, const Foam::faceListList&, const Foam::wordList&, const Foam::wordList&, const Foam::word&, const Foam::word&, const Foam::wordList&, bool)
    in file meshes/polyMesh/polyMeshFromShapeMesh.C at line 640
    Found 65602 undefined faces in mesh; adding to default patch defaultFaces
done.

Building boundary and internal patches.
Creating patch 0 for zone: 3 start: 1 end: 496 type: wall name: lowerWall
Creating patch 1 for zone: 4 start: 497 end: 992 type: wall name: upperWall
Creating patch 2 for zone: 5 start: 993 end: 1057 type: pressure-outlet name: outlet
Creating patch 3 for zone: 6 start: 1058 end: 1122 type: velocity-inlet name: inlet
Creating patch 4 for zone: 8 start: 1123 end: 65041 type: interior name: default-interior
Creating patch for front and back planes

Adding new patch lowerWall of type wall as patch 0
Adding new patch upperWall of type wall as patch 1
Adding new patch outlet of type patch as patch 2
Adding new patch inlet of type patch as patch 3
Patch default-interior is internal to the mesh  and is not being added to the boundary.
Adding new patch frontAndBackPlanes of type empty as patch 4

Writing mesh... to "constant/polyMesh"  done.


End

