/*---------------------------------------------------------------------------*\
| =========                 |                                                 |
| \\      /  F ield         | OpenFOAM: The Open Source CFD Toolbox           |
|  \\    /   O peration     | Version:  2412                                  |
|   \\  /    A nd           | Website:  www.openfoam.com                      |
|    \\/     M anipulation  |                                                 |
\*---------------------------------------------------------------------------*/
Build  : _8dbc61e11c-20241220 OPENFOAM=2412 version=v2412
Arch   : "LSB;label=32;scalar=64"
Exec   : simpleFoam
Date   : Jun 09 2025
Time   : 15:04:04
Host   : WORKHORSE
PID    : 4190436
I/O    : uncollated
Case   : /home/rokot/OpenFOAM/OpenFOAM-v2412/rokot-24/Diffuser/kOmegaSST
nProcs : 1
trapFpe: Floating point exception trapping enabled (FOAM_SIGFPE).
fileModificationChecking : Monitoring run-time modified files using timeStampMaster (fileModificationSkew 5, maxFileModificationPolls 20)
allowSystemOperations : Allowing user-supplied system call operations

// * * * * * * * * * * * * * * * * * * * * * * * * * * * * * * * * * * * * * //
Create time

Create mesh for time = 0


SIMPLE: convergence criteria
    field p	 tolerance 1e-05
    field U	 tolerance 1e-05
    field "(k|epsilon|omega|f|v2|nuTilda)"	 tolerance 1e-05

Reading field p

Reading field U

Reading/calculating face flux field phi

Selecting incompressible transport model Newtonian
Selecting turbulence model type RAS
Selecting RAS turbulence model kOmegaSST
Selecting patchDistMethod meshWave
RAS
{
    RASModel        kOmegaSST;
    turbulence      on;
    printCoeffs     on;
    alphaK1         0.85;
    alphaK2         1;
    alphaOmega1     0.5;
    alphaOmega2     0.856;
    gamma1          0.555556;
    gamma2          0.44;
    beta1           0.075;
    beta2           0.0828;
    betaStar        0.09;
    a1              0.31;
    b1              1;
    c1              10;
    F3              false;
    decayControl    false;
    kInf            0;
    omegaInf        0;
}

No MRF models present

No finite volume options present

Starting time loop

wallShearStress wallShearStress:
    processing (2) wall patches:
        lowerWall
        upperWall

turbulenceFields turbulenceFields1: storing fields:
    turbulenceProperties:R

Sampled surface:
    lowerWall -> raw
        sampledPatch: lowerWall : patches:(lowerWall)
    upperWall -> raw
        sampledPatch: upperWall : patches:(upperWall)

Sampled surface:
    interface -> raw
        isoSurface: interface : isoMethod:cell regularise:full snap:1 field:Ux value:(0)

Sampled set:
    line -> raw

Sampled set:
    line -> raw

Sampled set:
    line -> raw

Sampled set:
    line -> raw

Sampled set:
    line -> raw

Sampled set:
    line -> raw

Sampled set:
    line -> raw

Sampled set:
    line -> raw

Sampled set:
    line -> raw

Sampled set:
    line -> raw

Sampled set:
    line -> raw

Sampled set:
    line -> raw

Sampled set:
    line -> raw

Sampled set:
    line -> raw

Sampled set:
    line -> raw

Sampled set:
    line -> raw

Sampled set:
    line -> raw

Sampled set:
    line -> raw

Sampled set:
    line -> raw

Sampled set:
    line -> raw

Sampled set:
    line -> raw

Sampled set:
    line -> raw

Sampled set:
    line -> raw

Sampled set:
    line -> raw

Time = 1

smoothSolver:  Solving for Ux, Initial residual = 1, Final residual = 0.0575787, No Iterations 3
smoothSolver:  Solving for Uy, Initial residual = 1, Final residual = 0.0656186, No Iterations 6
GAMG:  Solving for p, Initial residual = 1, Final residual = 0.0996957, No Iterations 844
time step continuity errors : sum local = 0.000409817, global = -0.000171593, cumulative = -0.000171593
smoothSolver:  Solving for omega, Initial residual = 0.225437, Final residual = 0.0147341, No Iterations 3
bounding omega, min: -0.0964796 max: 8013.61 average: 309.803
smoothSolver:  Solving for k, Initial residual = 1, Final residual = 0.0551549, No Iterations 4
ExecutionTime = 6.18 s  ClockTime = 6 s

Time = 2

smoothSolver:  Solving for Ux, Initial residual = 0.546778, Final residual = 0.0397639, No Iterations 5
smoothSolver:  Solving for Uy, Initial residual = 0.325752, Final residual = 0.0289251, No Iterations 4
GAMG:  Solving for p, Initial residual = 0.00444217, Final residual = 0.00106011, No Iterations 1000
time step continuity errors : sum local = 0.0144652, global = 0.00230764, cumulative = 0.00213605
smoothSolver:  Solving for omega, Initial residual = 0.235961, Final residual = 0.00103998, No Iterations 1
bounding omega, min: -0.658839 max: 8006 average: 156.003
smoothSolver:  Solving for k, Initial residual = 0.310009, Final residual = 0.0155372, No Iterations 2
ExecutionTime = 8.22 s  ClockTime = 8 s

Time = 3

smoothSolver:  Solving for Ux, Initial residual = 0.161041, Final residual = 0.0154032, No Iterations 4
smoothSolver:  Solving for Uy, Initial residual = 0.286463, Final residual = 0.0216258, No Iterations 3
GAMG:  Solving for p, Initial residual = 0.014363, Final residual = 0.00195445, No Iterations 1000
time step continuity errors : sum local = 0.00698618, global = 0.00125394, cumulative = 0.00338999
smoothSolver:  Solving for omega, Initial residual = 0.0110776, Final residual = 0.000489634, No Iterations 1
bounding omega, min: -0.0857158 max: 8003.07 average: 165.591
smoothSolver:  Solving for k, Initial residual = 0.25476, Final residual = 0.00932535, No Iterations 2
bounding k, min: -0.00706786 max: 0.154522 average: 0.0162164
ExecutionTime = 10.24 s  ClockTime = 10 s

Time = 4

smoothSolver:  Solving for Ux, Initial residual = 0.106678, Final residual = 0.00774021, No Iterations 4
smoothSolver:  Solving for Uy, Initial residual = 0.134125, Final residual = 0.00757685, No Iterations 3
GAMG:  Solving for p, Initial residual = 0.0136693, Final residual = 0.00135743, No Iterations 160
time step continuity errors : sum local = 0.00319189, global = 0.000406941, cumulative = 0.00379693
smoothSolver:  Solving for omega, Initial residual = 0.00652972, Final residual = 0.000255466, No Iterations 1
smoothSolver:  Solving for k, Initial residual = 0.20544, Final residual = 0.00588828, No Iterations 2
ExecutionTime = 10.6 s  ClockTime = 10 s

Time = 5

smoothSolver:  Solving for Ux, Initial residual = 0.0953924, Final residual = 0.00852786, No Iterations 4
smoothSolver:  Solving for Uy, Initial residual = 0.246463, Final residual = 0.0169488, No Iterations 4
GAMG:  Solving for p, Initial residual = 0.0109254, Final residual = 0.00109231, No Iterations 535
time step continuity errors : sum local = 0.00247119, global = -0.000415255, cumulative = 0.00338168
smoothSolver:  Solving for omega, Initial residual = 0.00306777, Final residual = 0.000197961, No Iterations 1
smoothSolver:  Solving for k, Initial residual = 0.14754, Final residual = 0.0071649, No Iterations 2
ExecutionTime = 11.7 s  ClockTime = 11 s

Time = 6

smoothSolver:  Solving for Ux, Initial residual = 0.0803994, Final residual = 0.00745987, No Iterations 4
smoothSolver:  Solving for Uy, Initial residual = 0.200114, Final residual = 0.0141724, No Iterations 4
GAMG:  Solving for p, Initial residual = 0.013934, Final residual = 0.00139189, No Iterations 825
time step continuity errors : sum local = 0.00186524, global = -0.000303669, cumulative = 0.00307801
smoothSolver:  Solving for omega, Initial residual = 0.00204582, Final residual = 0.000159683, No Iterations 1
smoothSolver:  Solving for k, Initial residual = 0.107507, Final residual = 0.00902698, No Iterations 2
ExecutionTime = 13.39 s  ClockTime = 13 s

Time = 7

smoothSolver:  Solving for Ux, Initial residual = 0.054168, Final residual = 0.00349602, No Iterations 5
smoothSolver:  Solving for Uy, Initial residual = 0.139819, Final residual = 0.00824667, No Iterations 4
GAMG:  Solving for p, Initial residual = 0.126923, Final residual = 0.0126614, No Iterations 253
time step continuity errors : sum local = 0.00149316, global = -0.000248349, cumulative = 0.00282966
smoothSolver:  Solving for omega, Initial residual = 0.00123786, Final residual = 3.96294e-05, No Iterations 2
smoothSolver:  Solving for k, Initial residual = 0.0744618, Final residual = 0.00699869, No Iterations 2
ExecutionTime = 13.94 s  ClockTime = 14 s

Time = 8

smoothSolver:  Solving for Ux, Initial residual = 0.0441141, Final residual = 0.00330581, No Iterations 5
smoothSolver:  Solving for Uy, Initial residual = 0.105894, Final residual = 0.00622741, No Iterations 4
GAMG:  Solving for p, Initial residual = 0.0517554, Final residual = 0.00516399, No Iterations 279
time step continuity errors : sum local = 0.000897808, global = -0.000158803, cumulative = 0.00267086
smoothSolver:  Solving for omega, Initial residual = 0.000785671, Final residual = 2.89273e-05, No Iterations 2
smoothSolver:  Solving for k, Initial residual = 0.0655419, Final residual = 0.00260744, No Iterations 3
ExecutionTime = 14.54 s  ClockTime = 14 s

Time = 9

smoothSolver:  Solving for Ux, Initial residual = 0.0383917, Final residual = 0.00316255, No Iterations 5
smoothSolver:  Solving for Uy, Initial residual = 0.0819983, Final residual = 0.00491845, No Iterations 4
GAMG:  Solving for p, Initial residual = 0.0259905, Final residual = 0.00259356, No Iterations 136
time step continuity errors : sum local = 0.000708502, global = -0.000105729, cumulative = 0.00256513
smoothSolver:  Solving for omega, Initial residual = 0.000556852, Final residual = 2.25771e-05, No Iterations 2
smoothSolver:  Solving for k, Initial residual = 0.0553246, Final residual = 0.00262042, No Iterations 3
ExecutionTime = 14.85 s  ClockTime = 15 s

Time = 10

smoothSolver:  Solving for Ux, Initial residual = 0.0334463, Final residual = 0.00293008, No Iterations 5
smoothSolver:  Solving for Uy, Initial residual = 0.0760843, Final residual = 0.00492302, No Iterations 4
GAMG:  Solving for p, Initial residual = 0.023117, Final residual = 0.00229519, No Iterations 163
time step continuity errors : sum local = 0.000643281, global = 7.80068e-05, cumulative = 0.00264313
smoothSolver:  Solving for omega, Initial residual = 0.000368187, Final residual = 1.92179e-05, No Iterations 2
smoothSolver:  Solving for k, Initial residual = 0.0464346, Final residual = 0.00258347, No Iterations 3
ExecutionTime = 15.22 s  ClockTime = 15 s

Time = 11

smoothSolver:  Solving for Ux, Initial residual = 0.0295569, Final residual = 0.00269913, No Iterations 5
smoothSolver:  Solving for Uy, Initial residual = 0.0697574, Final residual = 0.00466833, No Iterations 4
GAMG:  Solving for p, Initial residual = 0.0213078, Final residual = 0.00212858, No Iterations 205
time step continuity errors : sum local = 0.000567386, global = 6.27228e-05, cumulative = 0.00270586
smoothSolver:  Solving for omega, Initial residual = 0.000275662, Final residual = 1.93976e-05, No Iterations 2
smoothSolver:  Solving for k, Initial residual = 0.0405674, Final residual = 0.00256679, No Iterations 3
ExecutionTime = 15.67 s  ClockTime = 15 s

Time = 12

smoothSolver:  Solving for Ux, Initial residual = 0.0264186, Final residual = 0.00248556, No Iterations 5
smoothSolver:  Solving for Uy, Initial residual = 0.0662327, Final residual = 0.00455601, No Iterations 4
GAMG:  Solving for p, Initial residual = 0.0225532, Final residual = 0.00225314, No Iterations 213
time step continuity errors : sum local = 0.000506921, global = 5.78784e-05, cumulative = 0.00276374
smoothSolver:  Solving for omega, Initial residual = 0.000193377, Final residual = 1.83542e-05, No Iterations 2
smoothSolver:  Solving for k, Initial residual = 0.0356664, Final residual = 0.00252191, No Iterations 3
ExecutionTime = 16.15 s  ClockTime = 16 s

Time = 13

smoothSolver:  Solving for Ux, Initial residual = 0.023959, Final residual = 0.00229006, No Iterations 5
smoothSolver:  Solving for Uy, Initial residual = 0.0637756, Final residual = 0.00451918, No Iterations 4
GAMG:  Solving for p, Initial residual = 0.0260863, Final residual = 0.00260304, No Iterations 134
time step continuity errors : sum local = 0.000460318, global = 5.36582e-05, cumulative = 0.00281739
smoothSolver:  Solving for omega, Initial residual = 0.000170848, Final residual = 8.40098e-06, No Iterations 3
smoothSolver:  Solving for k, Initial residual = 0.0315573, Final residual = 0.00242149, No Iterations 3
ExecutionTime = 16.46 s  ClockTime = 16 s

Time = 14

smoothSolver:  Solving for Ux, Initial residual = 0.022098, Final residual = 0.00213022, No Iterations 5
smoothSolver:  Solving for Uy, Initial residual = 0.0617662, Final residual = 0.00442817, No Iterations 4
GAMG:  Solving for p, Initial residual = 0.0313411, Final residual = 0.00313358, No Iterations 72
time step continuity errors : sum local = 0.000429596, global = 5.40344e-05, cumulative = 0.00287143
smoothSolver:  Solving for omega, Initial residual = 0.000122715, Final residual = 7.79107e-06, No Iterations 3
smoothSolver:  Solving for k, Initial residual = 0.028424, Final residual = 0.00235259, No Iterations 3
ExecutionTime = 16.65 s  ClockTime = 16 s

Time = 15

smoothSolver:  Solving for Ux, Initial residual = 0.0205561, Final residual = 0.00200424, No Iterations 5
smoothSolver:  Solving for Uy, Initial residual = 0.0596647, Final residual = 0.00439526, No Iterations 4
GAMG:  Solving for p, Initial residual = 0.03204, Final residual = 0.00318318, No Iterations 85
time step continuity errors : sum local = 0.000405269, global = -5.07503e-05, cumulative = 0.00282068
smoothSolver:  Solving for omega, Initial residual = 0.000122404, Final residual = 7.71535e-06, No Iterations 3
smoothSolver:  Solving for k, Initial residual = 0.0255381, Final residual = 0.00227596, No Iterations 3
ExecutionTime = 16.87 s  ClockTime = 17 s

Time = 16

smoothSolver:  Solving for Ux, Initial residual = 0.0192981, Final residual = 0.00189354, No Iterations 5
smoothSolver:  Solving for Uy, Initial residual = 0.0584065, Final residual = 0.00442883, No Iterations 4
GAMG:  Solving for p, Initial residual = 0.0331634, Final residual = 0.00328503, No Iterations 83
time step continuity errors : sum local = 0.000391763, global = -4.63793e-05, cumulative = 0.0027743
smoothSolver:  Solving for omega, Initial residual = 9.98728e-05, Final residual = 7.41476e-06, No Iterations 3
smoothSolver:  Solving for k, Initial residual = 0.0229918, Final residual = 0.00218207, No Iterations 3
ExecutionTime = 17.08 s  ClockTime = 17 s

Time = 17

smoothSolver:  Solving for Ux, Initial residual = 0.0182265, Final residual = 0.00179828, No Iterations 5
smoothSolver:  Solving for Uy, Initial residual = 0.0574583, Final residual = 0.00451993, No Iterations 4
GAMG:  Solving for p, Initial residual = 0.032268, Final residual = 0.00320296, No Iterations 86
time step continuity errors : sum local = 0.000380382, global = -4.87747e-05, cumulative = 0.00272552
smoothSolver:  Solving for omega, Initial residual = 0.000105966, Final residual = 7.29672e-06, No Iterations 3
smoothSolver:  Solving for k, Initial residual = 0.0207396, Final residual = 0.0011098, No Iterations 4
ExecutionTime = 17.3 s  ClockTime = 17 s

Time = 18

smoothSolver:  Solving for Ux, Initial residual = 0.0172373, Final residual = 0.00171403, No Iterations 5
smoothSolver:  Solving for Uy, Initial residual = 0.0562769, Final residual = 0.0045752, No Iterations 4
GAMG:  Solving for p, Initial residual = 0.0297021, Final residual = 0.00296165, No Iterations 100
time step continuity errors : sum local = 0.000368346, global = -5.27029e-05, cumulative = 0.00267282
smoothSolver:  Solving for omega, Initial residual = 9.8036e-05, Final residual = 7.09117e-06, No Iterations 3
smoothSolver:  Solving for k, Initial residual = 0.01876, Final residual = 0.00107326, No Iterations 4
ExecutionTime = 17.54 s  ClockTime = 17 s

Time = 19

smoothSolver:  Solving for Ux, Initial residual = 0.0163475, Final residual = 0.00105838, No Iterations 6
smoothSolver:  Solving for Uy, Initial residual = 0.0551862, Final residual = 0.00464017, No Iterations 4
GAMG:  Solving for p, Initial residual = 0.0265772, Final residual = 0.00265765, No Iterations 116
time step continuity errors : sum local = 0.000364154, global = -5.41214e-05, cumulative = 0.0026187
smoothSolver:  Solving for omega, Initial residual = 0.000102969, Final residual = 7.03811e-06, No Iterations 3
smoothSolver:  Solving for k, Initial residual = 0.0172012, Final residual = 0.00102461, No Iterations 4
ExecutionTime = 17.82 s  ClockTime = 18 s

Time = 20

smoothSolver:  Solving for Ux, Initial residual = 0.0155073, Final residual = 0.00101684, No Iterations 6
smoothSolver:  Solving for Uy, Initial residual = 0.0545516, Final residual = 0.0047393, No Iterations 4
GAMG:  Solving for p, Initial residual = 0.0232754, Final residual = 0.00231941, No Iterations 116
time step continuity errors : sum local = 0.000358305, global = -5.20656e-05, cumulative = 0.00256663
smoothSolver:  Solving for omega, Initial residual = 9.88415e-05, Final residual = 6.87573e-06, No Iterations 3
smoothSolver:  Solving for k, Initial residual = 0.0158179, Final residual = 0.000971264, No Iterations 4
ExecutionTime = 18.1 s  ClockTime = 18 s

Time = 21

smoothSolver:  Solving for Ux, Initial residual = 0.0147386, Final residual = 0.000979945, No Iterations 6
smoothSolver:  Solving for Uy, Initial residual = 0.0533015, Final residual = 0.0047583, No Iterations 4
GAMG:  Solving for p, Initial residual = 0.0204085, Final residual = 0.00202764, No Iterations 94
time step continuity errors : sum local = 0.000349908, global = -4.78525e-05, cumulative = 0.00251878
smoothSolver:  Solving for omega, Initial residual = 9.97582e-05, Final residual = 6.66716e-06, No Iterations 3
smoothSolver:  Solving for k, Initial residual = 0.0147648, Final residual = 0.000916165, No Iterations 4
ExecutionTime = 18.34 s  ClockTime = 18 s

Time = 22

smoothSolver:  Solving for Ux, Initial residual = 0.0140158, Final residual = 0.000943785, No Iterations 6
smoothSolver:  Solving for Uy, Initial residual = 0.0515152, Final residual = 0.00473191, No Iterations 4
GAMG:  Solving for p, Initial residual = 0.0184317, Final residual = 0.00183711, No Iterations 74
time step continuity errors : sum local = 0.000340683, global = -4.26326e-05, cumulative = 0.00247615
smoothSolver:  Solving for omega, Initial residual = 9.70644e-05, Final residual = 6.50828e-06, No Iterations 3
smoothSolver:  Solving for k, Initial residual = 0.0139738, Final residual = 0.000877332, No Iterations 4
ExecutionTime = 18.53 s  ClockTime = 18 s

Time = 23

smoothSolver:  Solving for Ux, Initial residual = 0.0133446, Final residual = 0.000908815, No Iterations 6
smoothSolver:  Solving for Uy, Initial residual = 0.0495789, Final residual = 0.00468183, No Iterations 4
GAMG:  Solving for p, Initial residual = 0.0171366, Final residual = 0.00171106, No Iterations 62
time step continuity errors : sum local = 0.00033101, global = -3.74745e-05, cumulative = 0.00243867
smoothSolver:  Solving for omega, Initial residual = 9.59189e-05, Final residual = 6.35889e-06, No Iterations 3
smoothSolver:  Solving for k, Initial residual = 0.0134306, Final residual = 0.000845691, No Iterations 4
ExecutionTime = 18.7 s  ClockTime = 18 s

Time = 24

smoothSolver:  Solving for Ux, Initial residual = 0.0127255, Final residual = 0.000875557, No Iterations 6
smoothSolver:  Solving for Uy, Initial residual = 0.047834, Final residual = 0.0046417, No Iterations 4
GAMG:  Solving for p, Initial residual = 0.0162743, Final residual = 0.0016121, No Iterations 55
time step continuity errors : sum local = 0.000319434, global = 3.30287e-05, cumulative = 0.0024717
smoothSolver:  Solving for omega, Initial residual = 9.33361e-05, Final residual = 6.16898e-06, No Iterations 3
smoothSolver:  Solving for k, Initial residual = 0.0130262, Final residual = 0.000823125, No Iterations 4
ExecutionTime = 18.86 s  ClockTime = 19 s

Time = 25

smoothSolver:  Solving for Ux, Initial residual = 0.012155, Final residual = 0.000844196, No Iterations 6
smoothSolver:  Solving for Uy, Initial residual = 0.0460891, Final residual = 0.0045826, No Iterations 4
GAMG:  Solving for p, Initial residual = 0.0155956, Final residual = 0.00154119, No Iterations 51
time step continuity errors : sum local = 0.000309296, global = 3.19647e-05, cumulative = 0.00250367
smoothSolver:  Solving for omega, Initial residual = 9.13721e-05, Final residual = 6.03871e-06, No Iterations 3
smoothSolver:  Solving for k, Initial residual = 0.0128479, Final residual = 0.000821769, No Iterations 4
ExecutionTime = 19.01 s  ClockTime = 19 s

Time = 26

smoothSolver:  Solving for Ux, Initial residual = 0.0116266, Final residual = 0.000814775, No Iterations 6
smoothSolver:  Solving for Uy, Initial residual = 0.0442177, Final residual = 0.00272775, No Iterations 5
GAMG:  Solving for p, Initial residual = 0.0155492, Final residual = 0.00153427, No Iterations 50
time step continuity errors : sum local = 0.000308245, global = 3.4586e-05, cumulative = 0.00253825
smoothSolver:  Solving for omega, Initial residual = 8.90377e-05, Final residual = 5.85264e-06, No Iterations 3
smoothSolver:  Solving for k, Initial residual = 0.0127216, Final residual = 0.000825444, No Iterations 4
ExecutionTime = 19.16 s  ClockTime = 19 s

Time = 27

smoothSolver:  Solving for Ux, Initial residual = 0.0111509, Final residual = 0.000787168, No Iterations 6
smoothSolver:  Solving for Uy, Initial residual = 0.0415495, Final residual = 0.00258689, No Iterations 5
GAMG:  Solving for p, Initial residual = 0.0156964, Final residual = 0.00155355, No Iterations 51
time step continuity errors : sum local = 0.000308338, global = 3.43888e-05, cumulative = 0.00257264
smoothSolver:  Solving for omega, Initial residual = 8.66503e-05, Final residual = 5.75008e-06, No Iterations 3
smoothSolver:  Solving for k, Initial residual = 0.0126676, Final residual = 0.000845145, No Iterations 4
ExecutionTime = 19.31 s  ClockTime = 19 s

Time = 28

smoothSolver:  Solving for Ux, Initial residual = 0.0107327, Final residual = 0.000760244, No Iterations 6
smoothSolver:  Solving for Uy, Initial residual = 0.0397614, Final residual = 0.00252209, No Iterations 5
GAMG:  Solving for p, Initial residual = 0.0165394, Final residual = 0.00165169, No Iterations 68
time step continuity errors : sum local = 0.000314748, global = 3.61558e-05, cumulative = 0.0026088
smoothSolver:  Solving for omega, Initial residual = 8.42502e-05, Final residual = 5.58418e-06, No Iterations 3
smoothSolver:  Solving for k, Initial residual = 0.0127275, Final residual = 0.000868289, No Iterations 4
ExecutionTime = 19.5 s  ClockTime = 19 s

Time = 29

smoothSolver:  Solving for Ux, Initial residual = 0.0103311, Final residual = 0.000733557, No Iterations 6
smoothSolver:  Solving for Uy, Initial residual = 0.0376044, Final residual = 0.00244323, No Iterations 5
GAMG:  Solving for p, Initial residual = 0.0171777, Final residual = 0.00170762, No Iterations 94
time step continuity errors : sum local = 0.000309919, global = 3.59261e-05, cumulative = 0.00264472
smoothSolver:  Solving for omega, Initial residual = 8.14667e-05, Final residual = 5.47753e-06, No Iterations 3
smoothSolver:  Solving for k, Initial residual = 0.0129157, Final residual = 0.000912203, No Iterations 4
ExecutionTime = 19.74 s  ClockTime = 19 s

Time = 30

smoothSolver:  Solving for Ux, Initial residual = 0.00997301, Final residual = 0.000707382, No Iterations 6
smoothSolver:  Solving for Uy, Initial residual = 0.035563, Final residual = 0.00235898, No Iterations 5
GAMG:  Solving for p, Initial residual = 0.0184413, Final residual = 0.00184303, No Iterations 96
time step continuity errors : sum local = 0.000309174, global = 3.43991e-05, cumulative = 0.00267912
smoothSolver:  Solving for omega, Initial residual = 7.90001e-05, Final residual = 5.39487e-06, No Iterations 3
smoothSolver:  Solving for k, Initial residual = 0.0131619, Final residual = 0.000960783, No Iterations 4
ExecutionTime = 19.98 s  ClockTime = 20 s

Time = 31

smoothSolver:  Solving for Ux, Initial residual = 0.00963192, Final residual = 0.000682036, No Iterations 6
smoothSolver:  Solving for Uy, Initial residual = 0.0334446, Final residual = 0.00227552, No Iterations 5
GAMG:  Solving for p, Initial residual = 0.0196765, Final residual = 0.0019614, No Iterations 92
time step continuity errors : sum local = 0.00030204, global = 3.10021e-05, cumulative = 0.00271013
smoothSolver:  Solving for omega, Initial residual = 7.604e-05, Final residual = 5.24228e-06, No Iterations 3
smoothSolver:  Solving for k, Initial residual = 0.0134677, Final residual = 0.00101319, No Iterations 4
ExecutionTime = 20.21 s  ClockTime = 20 s

Time = 32

smoothSolver:  Solving for Ux, Initial residual = 0.00930024, Final residual = 0.000657865, No Iterations 6
smoothSolver:  Solving for Uy, Initial residual = 0.0316151, Final residual = 0.00220041, No Iterations 5
GAMG:  Solving for p, Initial residual = 0.0208333, Final residual = 0.00207128, No Iterations 80
time step continuity errors : sum local = 0.000295213, global = 2.76348e-05, cumulative = 0.00273776
smoothSolver:  Solving for omega, Initial residual = 7.3478e-05, Final residual = 5.09048e-06, No Iterations 3
smoothSolver:  Solving for k, Initial residual = 0.0137877, Final residual = 0.00106091, No Iterations 4
ExecutionTime = 20.42 s  ClockTime = 20 s

Time = 33

smoothSolver:  Solving for Ux, Initial residual = 0.0089634, Final residual = 0.000634649, No Iterations 6
smoothSolver:  Solving for Uy, Initial residual = 0.0302672, Final residual = 0.00215044, No Iterations 5
GAMG:  Solving for p, Initial residual = 0.0216388, Final residual = 0.00213873, No Iterations 76
time step continuity errors : sum local = 0.0002879, global = 2.50953e-05, cumulative = 0.00276286
smoothSolver:  Solving for omega, Initial residual = 7.0713e-05, Final residual = 4.97797e-06, No Iterations 3
smoothSolver:  Solving for k, Initial residual = 0.014118, Final residual = 0.00111409, No Iterations 4
ExecutionTime = 20.62 s  ClockTime = 20 s

Time = 34

smoothSolver:  Solving for Ux, Initial residual = 0.00862507, Final residual = 0.00061215, No Iterations 6
smoothSolver:  Solving for Uy, Initial residual = 0.0292814, Final residual = 0.00211526, No Iterations 5
GAMG:  Solving for p, Initial residual = 0.0220136, Final residual = 0.00217457, No Iterations 74
time step continuity errors : sum local = 0.000282194, global = 2.3326e-05, cumulative = 0.00278618
smoothSolver:  Solving for omega, Initial residual = 6.78856e-05, Final residual = 4.81371e-06, No Iterations 3
smoothSolver:  Solving for k, Initial residual = 0.0143998, Final residual = 0.00115044, No Iterations 4
ExecutionTime = 20.81 s  ClockTime = 20 s

Time = 35

smoothSolver:  Solving for Ux, Initial residual = 0.00829426, Final residual = 0.00059021, No Iterations 6
smoothSolver:  Solving for Uy, Initial residual = 0.0283813, Final residual = 0.00207202, No Iterations 5
GAMG:  Solving for p, Initial residual = 0.0222531, Final residual = 0.00221494, No Iterations 68
time step continuity errors : sum local = 0.000279877, global = 2.19697e-05, cumulative = 0.00280815
smoothSolver:  Solving for omega, Initial residual = 6.50041e-05, Final residual = 4.63008e-06, No Iterations 3
smoothSolver:  Solving for k, Initial residual = 0.0147571, Final residual = 0.00120246, No Iterations 4
ExecutionTime = 21 s  ClockTime = 21 s

Time = 36

smoothSolver:  Solving for Ux, Initial residual = 0.00797218, Final residual = 0.000568643, No Iterations 6
smoothSolver:  Solving for Uy, Initial residual = 0.0275829, Final residual = 0.00202839, No Iterations 5
GAMG:  Solving for p, Initial residual = 0.0223325, Final residual = 0.00222054, No Iterations 64
time step continuity errors : sum local = 0.000275585, global = 2.02169e-05, cumulative = 0.00282837
smoothSolver:  Solving for omega, Initial residual = 6.21979e-05, Final residual = 4.47062e-06, No Iterations 3
smoothSolver:  Solving for k, Initial residual = 0.015076, Final residual = 0.00123808, No Iterations 4
ExecutionTime = 21.17 s  ClockTime = 21 s

Time = 37

smoothSolver:  Solving for Ux, Initial residual = 0.00766204, Final residual = 0.000547879, No Iterations 6
smoothSolver:  Solving for Uy, Initial residual = 0.0269031, Final residual = 0.00198717, No Iterations 5
GAMG:  Solving for p, Initial residual = 0.0223303, Final residual = 0.00223297, No Iterations 60
time step continuity errors : sum local = 0.000274664, global = 1.91453e-05, cumulative = 0.00284751
smoothSolver:  Solving for omega, Initial residual = 5.92785e-05, Final residual = 4.27395e-06, No Iterations 3
smoothSolver:  Solving for k, Initial residual = 0.0153506, Final residual = 0.00127532, No Iterations 4
ExecutionTime = 21.34 s  ClockTime = 21 s

Time = 38

smoothSolver:  Solving for Ux, Initial residual = 0.00735434, Final residual = 0.000527528, No Iterations 6
smoothSolver:  Solving for Uy, Initial residual = 0.0262709, Final residual = 0.00194193, No Iterations 5
GAMG:  Solving for p, Initial residual = 0.0221923, Final residual = 0.00219768, No Iterations 60
time step continuity errors : sum local = 0.000267894, global = 1.84723e-05, cumulative = 0.00286599
smoothSolver:  Solving for omega, Initial residual = 5.63545e-05, Final residual = 4.09578e-06, No Iterations 3
smoothSolver:  Solving for k, Initial residual = 0.0156405, Final residual = 0.00131476, No Iterations 4
ExecutionTime = 21.51 s  ClockTime = 21 s

Time = 39

smoothSolver:  Solving for Ux, Initial residual = 0.00705058, Final residual = 0.000507507, No Iterations 6
smoothSolver:  Solving for Uy, Initial residual = 0.0256766, Final residual = 0.00189071, No Iterations 5
GAMG:  Solving for p, Initial residual = 0.0217758, Final residual = 0.00217556, No Iterations 60
time step continuity errors : sum local = 0.000262194, global = 1.8368e-05, cumulative = 0.00288435
smoothSolver:  Solving for omega, Initial residual = 5.33961e-05, Final residual = 3.873e-06, No Iterations 3
smoothSolver:  Solving for k, Initial residual = 0.0159109, Final residual = 0.00134855, No Iterations 4
ExecutionTime = 21.68 s  ClockTime = 21 s

Time = 40

smoothSolver:  Solving for Ux, Initial residual = 0.00675857, Final residual = 0.000487766, No Iterations 6
smoothSolver:  Solving for Uy, Initial residual = 0.0250763, Final residual = 0.00184584, No Iterations 5
GAMG:  Solving for p, Initial residual = 0.0215132, Final residual = 0.00212023, No Iterations 62
time step continuity errors : sum local = 0.000250252, global = 1.58747e-05, cumulative = 0.00290023
smoothSolver:  Solving for omega, Initial residual = 5.02916e-05, Final residual = 3.69864e-06, No Iterations 3
smoothSolver:  Solving for k, Initial residual = 0.0160582, Final residual = 0.00135662, No Iterations 4
ExecutionTime = 21.85 s  ClockTime = 22 s

Time = 41

smoothSolver:  Solving for Ux, Initial residual = 0.00649572, Final residual = 0.00046809, No Iterations 6
smoothSolver:  Solving for Uy, Initial residual = 0.0246189, Final residual = 0.00181385, No Iterations 5
GAMG:  Solving for p, Initial residual = 0.0221956, Final residual = 0.00220789, No Iterations 59
time step continuity errors : sum local = 0.000247354, global = 1.76391e-05, cumulative = 0.00291787
smoothSolver:  Solving for omega, Initial residual = 4.77373e-05, Final residual = 3.49799e-06, No Iterations 3
smoothSolver:  Solving for k, Initial residual = 0.0162237, Final residual = 0.00137478, No Iterations 4
ExecutionTime = 22.02 s  ClockTime = 22 s

Time = 42

smoothSolver:  Solving for Ux, Initial residual = 0.00620855, Final residual = 0.000448742, No Iterations 6
smoothSolver:  Solving for Uy, Initial residual = 0.0238047, Final residual = 0.0017705, No Iterations 5
GAMG:  Solving for p, Initial residual = 0.0219563, Final residual = 0.00218088, No Iterations 65
time step continuity errors : sum local = 0.000236556, global = 1.83655e-05, cumulative = 0.00293623
smoothSolver:  Solving for omega, Initial residual = 4.45638e-05, Final residual = 3.34707e-06, No Iterations 3
smoothSolver:  Solving for k, Initial residual = 0.0163489, Final residual = 0.00138202, No Iterations 4
ExecutionTime = 22.2 s  ClockTime = 22 s

Time = 43

smoothSolver:  Solving for Ux, Initial residual = 0.00594827, Final residual = 0.000429906, No Iterations 6
smoothSolver:  Solving for Uy, Initial residual = 0.0230856, Final residual = 0.00172668, No Iterations 5
GAMG:  Solving for p, Initial residual = 0.0220283, Final residual = 0.00219851, No Iterations 68
time step continuity errors : sum local = 0.000227655, global = -1.78725e-05, cumulative = 0.00291836
smoothSolver:  Solving for omega, Initial residual = 4.20279e-05, Final residual = 3.1654e-06, No Iterations 3
smoothSolver:  Solving for k, Initial residual = 0.0164248, Final residual = 0.00138754, No Iterations 4
ExecutionTime = 22.38 s  ClockTime = 22 s

Time = 44

smoothSolver:  Solving for Ux, Initial residual = 0.00570574, Final residual = 0.00041162, No Iterations 6
smoothSolver:  Solving for Uy, Initial residual = 0.0222097, Final residual = 0.00168268, No Iterations 5
GAMG:  Solving for p, Initial residual = 0.0223628, Final residual = 0.00221996, No Iterations 70
time step continuity errors : sum local = 0.000215283, global = -1.64993e-05, cumulative = 0.00290186
smoothSolver:  Solving for omega, Initial residual = 3.91893e-05, Final residual = 2.99496e-06, No Iterations 3
smoothSolver:  Solving for k, Initial residual = 0.01654, Final residual = 0.00139645, No Iterations 4
ExecutionTime = 22.57 s  ClockTime = 22 s

Time = 45

smoothSolver:  Solving for Ux, Initial residual = 0.00546898, Final residual = 0.000394095, No Iterations 6
smoothSolver:  Solving for Uy, Initial residual = 0.0214008, Final residual = 0.00164478, No Iterations 5
GAMG:  Solving for p, Initial residual = 0.0227947, Final residual = 0.00226495, No Iterations 70
time step continuity errors : sum local = 0.000205032, global = 1.59901e-05, cumulative = 0.00291785
smoothSolver:  Solving for omega, Initial residual = 3.67528e-05, Final residual = 2.81482e-06, No Iterations 3
smoothSolver:  Solving for k, Initial residual = 0.016625, Final residual = 0.00140328, No Iterations 4
ExecutionTime = 22.76 s  ClockTime = 22 s

Time = 46

smoothSolver:  Solving for Ux, Initial residual = 0.0052365, Final residual = 0.00037742, No Iterations 6
smoothSolver:  Solving for Uy, Initial residual = 0.020707, Final residual = 0.00161248, No Iterations 5
GAMG:  Solving for p, Initial residual = 0.0229763, Final residual = 0.00228618, No Iterations 71
time step continuity errors : sum local = 0.000195274, global = 1.50065e-05, cumulative = 0.00293286
smoothSolver:  Solving for omega, Initial residual = 3.42746e-05, Final residual = 2.65105e-06, No Iterations 3
smoothSolver:  Solving for k, Initial residual = 0.016694, Final residual = 0.00140463, No Iterations 4
ExecutionTime = 22.95 s  ClockTime = 23 s

Time = 47

smoothSolver:  Solving for Ux, Initial residual = 0.00501239, Final residual = 0.000361278, No Iterations 6
smoothSolver:  Solving for Uy, Initial residual = 0.0200351, Final residual = 0.00157853, No Iterations 5
GAMG:  Solving for p, Initial residual = 0.0231812, Final residual = 0.00229383, No Iterations 74
time step continuity errors : sum local = 0.000184432, global = 1.42477e-05, cumulative = 0.00294711
smoothSolver:  Solving for omega, Initial residual = 3.20426e-05, Final residual = 2.51006e-06, No Iterations 3
smoothSolver:  Solving for k, Initial residual = 0.0166999, Final residual = 0.00141647, No Iterations 4
ExecutionTime = 23.15 s  ClockTime = 23 s

Time = 48

smoothSolver:  Solving for Ux, Initial residual = 0.00479181, Final residual = 0.000345677, No Iterations 6
smoothSolver:  Solving for Uy, Initial residual = 0.0193913, Final residual = 0.00154714, No Iterations 5
GAMG:  Solving for p, Initial residual = 0.0233376, Final residual = 0.00231466, No Iterations 76
time step continuity errors : sum local = 0.000175192, global = 1.34223e-05, cumulative = 0.00296053
smoothSolver:  Solving for omega, Initial residual = 3.0081e-05, Final residual = 2.38403e-06, No Iterations 3
smoothSolver:  Solving for k, Initial residual = 0.0167092, Final residual = 0.00140944, No Iterations 4
ExecutionTime = 23.35 s  ClockTime = 23 s

Time = 49

smoothSolver:  Solving for Ux, Initial residual = 0.00458254, Final residual = 0.000330355, No Iterations 6
smoothSolver:  Solving for Uy, Initial residual = 0.018744, Final residual = 0.00151969, No Iterations 5
GAMG:  Solving for p, Initial residual = 0.0236058, Final residual = 0.00235331, No Iterations 77
time step continuity errors : sum local = 0.000165831, global = -1.20668e-05, cumulative = 0.00294846
smoothSolver:  Solving for omega, Initial residual = 2.83992e-05, Final residual = 2.21403e-06, No Iterations 3
smoothSolver:  Solving for k, Initial residual = 0.0167576, Final residual = 0.00142171, No Iterations 4
ExecutionTime = 23.55 s  ClockTime = 23 s

Time = 50

smoothSolver:  Solving for Ux, Initial residual = 0.00437667, Final residual = 0.000315414, No Iterations 6
smoothSolver:  Solving for Uy, Initial residual = 0.0181635, Final residual = 0.00149522, No Iterations 5
GAMG:  Solving for p, Initial residual = 0.0239012, Final residual = 0.00238303, No Iterations 79
time step continuity errors : sum local = 0.00015574, global = -1.15327e-05, cumulative = 0.00293693
smoothSolver:  Solving for omega, Initial residual = 2.70189e-05, Final residual = 2.09519e-06, No Iterations 3
smoothSolver:  Solving for k, Initial residual = 0.0166659, Final residual = 0.00139579, No Iterations 4
ExecutionTime = 23.75 s  ClockTime = 23 s

Time = 51

smoothSolver:  Solving for Ux, Initial residual = 0.00417981, Final residual = 0.000301031, No Iterations 6
smoothSolver:  Solving for Uy, Initial residual = 0.0175989, Final residual = 0.00146978, No Iterations 5
GAMG:  Solving for p, Initial residual = 0.0243665, Final residual = 0.00243303, No Iterations 81
time step continuity errors : sum local = 0.000146147, global = -1.09847e-05, cumulative = 0.00292594
smoothSolver:  Solving for omega, Initial residual = 2.57941e-05, Final residual = 1.9623e-06, No Iterations 3
smoothSolver:  Solving for k, Initial residual = 0.0166249, Final residual = 0.00139, No Iterations 4
ExecutionTime = 23.96 s  ClockTime = 24 s

Time = 52

smoothSolver:  Solving for Ux, Initial residual = 0.00399267, Final residual = 0.000287031, No Iterations 6
smoothSolver:  Solving for Uy, Initial residual = 0.017042, Final residual = 0.00144559, No Iterations 5
GAMG:  Solving for p, Initial residual = 0.0251515, Final residual = 0.00250444, No Iterations 83
time step continuity errors : sum local = 0.000136224, global = -1.0454e-05, cumulative = 0.00291549
smoothSolver:  Solving for omega, Initial residual = 2.48098e-05, Final residual = 1.85946e-06, No Iterations 3
smoothSolver:  Solving for k, Initial residual = 0.0164659, Final residual = 0.00135498, No Iterations 4
ExecutionTime = 24.18 s  ClockTime = 24 s

Time = 53

smoothSolver:  Solving for Ux, Initial residual = 0.00381594, Final residual = 0.000273513, No Iterations 6
smoothSolver:  Solving for Uy, Initial residual = 0.0164721, Final residual = 0.00141864, No Iterations 5
GAMG:  Solving for p, Initial residual = 0.0263699, Final residual = 0.00261007, No Iterations 85
time step continuity errors : sum local = 0.000126274, global = -9.74772e-06, cumulative = 0.00290574
smoothSolver:  Solving for omega, Initial residual = 2.40184e-05, Final residual = 1.735e-06, No Iterations 3
smoothSolver:  Solving for k, Initial residual = 0.0163455, Final residual = 0.00133484, No Iterations 4
ExecutionTime = 24.4 s  ClockTime = 24 s

Time = 54

smoothSolver:  Solving for Ux, Initial residual = 0.00364538, Final residual = 0.000260388, No Iterations 6
smoothSolver:  Solving for Uy, Initial residual = 0.0159026, Final residual = 0.00139269, No Iterations 5
GAMG:  Solving for p, Initial residual = 0.0281449, Final residual = 0.00280547, No Iterations 83
time step continuity errors : sum local = 0.000118707, global = -9.08501e-06, cumulative = 0.00289666
smoothSolver:  Solving for omega, Initial residual = 2.31413e-05, Final residual = 1.63009e-06, No Iterations 3
smoothSolver:  Solving for k, Initial residual = 0.0161983, Final residual = 0.00132885, No Iterations 4
ExecutionTime = 24.61 s  ClockTime = 24 s

Time = 55

smoothSolver:  Solving for Ux, Initial residual = 0.00348201, Final residual = 0.000247832, No Iterations 6
smoothSolver:  Solving for Uy, Initial residual = 0.0153686, Final residual = 0.00136626, No Iterations 5
GAMG:  Solving for p, Initial residual = 0.0308269, Final residual = 0.00308097, No Iterations 81
time step continuity errors : sum local = 0.000111476, global = -8.43946e-06, cumulative = 0.00288822
smoothSolver:  Solving for omega, Initial residual = 2.23135e-05, Final residual = 1.52476e-06, No Iterations 3
smoothSolver:  Solving for k, Initial residual = 0.0160503, Final residual = 0.00131438, No Iterations 4
ExecutionTime = 24.82 s  ClockTime = 25 s

Time = 56

smoothSolver:  Solving for Ux, Initial residual = 0.00332591, Final residual = 0.000235881, No Iterations 6
smoothSolver:  Solving for Uy, Initial residual = 0.0148701, Final residual = 0.0013403, No Iterations 5
GAMG:  Solving for p, Initial residual = 0.034407, Final residual = 0.00339892, No Iterations 81
time step continuity errors : sum local = 0.000103088, global = -7.86789e-06, cumulative = 0.00288035
smoothSolver:  Solving for omega, Initial residual = 2.15039e-05, Final residual = 1.43604e-06, No Iterations 3
smoothSolver:  Solving for k, Initial residual = 0.0158252, Final residual = 0.00127449, No Iterations 4
ExecutionTime = 25.03 s  ClockTime = 25 s

Time = 57

smoothSolver:  Solving for Ux, Initial residual = 0.00317742, Final residual = 0.000224651, No Iterations 6
smoothSolver:  Solving for Uy, Initial residual = 0.0143937, Final residual = 0.00131522, No Iterations 5
GAMG:  Solving for p, Initial residual = 0.0393433, Final residual = 0.00391662, No Iterations 79
time step continuity errors : sum local = 9.70417e-05, global = -7.42479e-06, cumulative = 0.00287292
smoothSolver:  Solving for omega, Initial residual = 2.07195e-05, Final residual = 1.32717e-06, No Iterations 3
smoothSolver:  Solving for k, Initial residual = 0.0156541, Final residual = 0.0012495, No Iterations 4
ExecutionTime = 25.24 s  ClockTime = 25 s

Time = 58

smoothSolver:  Solving for Ux, Initial residual = 0.00303424, Final residual = 0.000214045, No Iterations 6
smoothSolver:  Solving for Uy, Initial residual = 0.0139453, Final residual = 0.00128942, No Iterations 5
GAMG:  Solving for p, Initial residual = 0.0469933, Final residual = 0.00468447, No Iterations 80
time step continuity errors : sum local = 9.09424e-05, global = 8.1869e-06, cumulative = 0.00288111
smoothSolver:  Solving for omega, Initial residual = 2.00281e-05, Final residual = 1.25893e-06, No Iterations 3
smoothSolver:  Solving for k, Initial residual = 0.0154045, Final residual = 0.00121615, No Iterations 4
ExecutionTime = 25.45 s  ClockTime = 25 s

Time = 59

smoothSolver:  Solving for Ux, Initial residual = 0.00290275, Final residual = 0.000204153, No Iterations 6
smoothSolver:  Solving for Uy, Initial residual = 0.0135314, Final residual = 0.001263, No Iterations 5
GAMG:  Solving for p, Initial residual = 0.0392048, Final residual = 0.00390847, No Iterations 81
time step continuity errors : sum local = 8.46066e-05, global = 7.97107e-06, cumulative = 0.00288908
smoothSolver:  Solving for omega, Initial residual = 1.92864e-05, Final residual = 1.17295e-06, No Iterations 3
smoothSolver:  Solving for k, Initial residual = 0.0151639, Final residual = 0.00118629, No Iterations 4
ExecutionTime = 25.66 s  ClockTime = 25 s

Time = 60

smoothSolver:  Solving for Ux, Initial residual = 0.00277634, Final residual = 0.000195147, No Iterations 6
smoothSolver:  Solving for Uy, Initial residual = 0.01316, Final residual = 0.00123718, No Iterations 5
GAMG:  Solving for p, Initial residual = 0.0320498, Final residual = 0.00319237, No Iterations 85
time step continuity errors : sum local = 7.95706e-05, global = 8.02793e-06, cumulative = 0.00289711
smoothSolver:  Solving for omega, Initial residual = 1.87129e-05, Final residual = 1.1037e-06, No Iterations 3
smoothSolver:  Solving for k, Initial residual = 0.0149122, Final residual = 0.00115533, No Iterations 4
ExecutionTime = 25.88 s  ClockTime = 26 s

Time = 61

smoothSolver:  Solving for Ux, Initial residual = 0.00265806, Final residual = 0.000186856, No Iterations 6
smoothSolver:  Solving for Uy, Initial residual = 0.0127946, Final residual = 0.00121278, No Iterations 5
GAMG:  Solving for p, Initial residual = 0.0266883, Final residual = 0.00265938, No Iterations 93
time step continuity errors : sum local = 7.48279e-05, global = 9.02005e-06, cumulative = 0.00290613
smoothSolver:  Solving for omega, Initial residual = 1.80602e-05, Final residual = 1.01488e-06, No Iterations 3
smoothSolver:  Solving for k, Initial residual = 0.0146157, Final residual = 0.00111711, No Iterations 4
ExecutionTime = 26.12 s  ClockTime = 26 s

Time = 62

smoothSolver:  Solving for Ux, Initial residual = 0.00254986, Final residual = 0.00018001, No Iterations 6
smoothSolver:  Solving for Uy, Initial residual = 0.0124629, Final residual = 0.00118808, No Iterations 5
GAMG:  Solving for p, Initial residual = 0.0235536, Final residual = 0.00235161, No Iterations 113
time step continuity errors : sum local = 7.0805e-05, global = -8.28076e-06, cumulative = 0.00289785
smoothSolver:  Solving for omega, Initial residual = 1.77994e-05, Final residual = 9.47446e-07, No Iterations 3
smoothSolver:  Solving for k, Initial residual = 0.0143827, Final residual = 0.00107883, No Iterations 4
ExecutionTime = 26.39 s  ClockTime = 26 s

Time = 63

smoothSolver:  Solving for Ux, Initial residual = 0.00245177, Final residual = 0.00017317, No Iterations 6
smoothSolver:  Solving for Uy, Initial residual = 0.0121064, Final residual = 0.00116634, No Iterations 5
GAMG:  Solving for p, Initial residual = 0.0198079, Final residual = 0.00197353, No Iterations 129
time step continuity errors : sum local = 6.59865e-05, global = -8.62408e-06, cumulative = 0.00288923
smoothSolver:  Solving for omega, Initial residual = 1.74047e-05, Final residual = 8.85462e-07, No Iterations 3
smoothSolver:  Solving for k, Initial residual = 0.0141442, Final residual = 0.00105859, No Iterations 4
ExecutionTime = 26.69 s  ClockTime = 26 s

Time = 64

smoothSolver:  Solving for Ux, Initial residual = 0.00235898, Final residual = 0.000166102, No Iterations 6
smoothSolver:  Solving for Uy, Initial residual = 0.0117479, Final residual = 0.00114189, No Iterations 5
GAMG:  Solving for p, Initial residual = 0.0162521, Final residual = 0.00161516, No Iterations 125
time step continuity errors : sum local = 6.19086e-05, global = -8.73164e-06, cumulative = 0.00288049
smoothSolver:  Solving for omega, Initial residual = 1.69634e-05, Final residual = 8.20271e-07, No Iterations 3
smoothSolver:  Solving for k, Initial residual = 0.0138769, Final residual = 0.00101654, No Iterations 4
ExecutionTime = 26.99 s  ClockTime = 27 s

Time = 65

smoothSolver:  Solving for Ux, Initial residual = 0.00227324, Final residual = 0.00015964, No Iterations 6
smoothSolver:  Solving for Uy, Initial residual = 0.0114229, Final residual = 0.0011176, No Iterations 5
GAMG:  Solving for p, Initial residual = 0.0137178, Final residual = 0.00137013, No Iterations 115
time step continuity errors : sum local = 5.90452e-05, global = -8.53471e-06, cumulative = 0.00287196
smoothSolver:  Solving for omega, Initial residual = 1.64064e-05, Final residual = 1.63537e-06, No Iterations 2
smoothSolver:  Solving for k, Initial residual = 0.0136907, Final residual = 0.000992339, No Iterations 4
ExecutionTime = 27.27 s  ClockTime = 27 s

Time = 66

smoothSolver:  Solving for Ux, Initial residual = 0.00218614, Final residual = 0.000153757, No Iterations 6
smoothSolver:  Solving for Uy, Initial residual = 0.0111276, Final residual = 0.00109524, No Iterations 5
GAMG:  Solving for p, Initial residual = 0.0118866, Final residual = 0.00118786, No Iterations 114
time step continuity errors : sum local = 5.61847e-05, global = -8.49436e-06, cumulative = 0.00286346
smoothSolver:  Solving for omega, Initial residual = 1.61193e-05, Final residual = 1.56337e-06, No Iterations 2
smoothSolver:  Solving for k, Initial residual = 0.0134817, Final residual = 0.000960439, No Iterations 4
ExecutionTime = 27.54 s  ClockTime = 27 s

Time = 67

smoothSolver:  Solving for Ux, Initial residual = 0.00210944, Final residual = 0.000149408, No Iterations 6
smoothSolver:  Solving for Uy, Initial residual = 0.0108688, Final residual = 0.00107468, No Iterations 5
GAMG:  Solving for p, Initial residual = 0.0107459, Final residual = 0.00106873, No Iterations 126
time step continuity errors : sum local = 5.33894e-05, global = -8.29132e-06, cumulative = 0.00285517
smoothSolver:  Solving for omega, Initial residual = 1.58045e-05, Final residual = 1.50121e-06, No Iterations 2
smoothSolver:  Solving for k, Initial residual = 0.0132995, Final residual = 0.000931741, No Iterations 4
ExecutionTime = 27.84 s  ClockTime = 28 s

Time = 68

smoothSolver:  Solving for Ux, Initial residual = 0.00204466, Final residual = 0.000145541, No Iterations 6
smoothSolver:  Solving for Uy, Initial residual = 0.0106232, Final residual = 0.00105492, No Iterations 5
GAMG:  Solving for p, Initial residual = 0.00959241, Final residual = 0.000956396, No Iterations 130
time step continuity errors : sum local = 5.09709e-05, global = -8.06631e-06, cumulative = 0.00284711
smoothSolver:  Solving for omega, Initial residual = 1.53783e-05, Final residual = 1.43189e-06, No Iterations 2
smoothSolver:  Solving for k, Initial residual = 0.0130951, Final residual = 0.000909223, No Iterations 4
ExecutionTime = 28.15 s  ClockTime = 28 s

Time = 69

smoothSolver:  Solving for Ux, Initial residual = 0.00198706, Final residual = 0.000142037, No Iterations 6
smoothSolver:  Solving for Uy, Initial residual = 0.0103775, Final residual = 0.00103476, No Iterations 5
GAMG:  Solving for p, Initial residual = 0.00861966, Final residual = 0.000861917, No Iterations 128
time step continuity errors : sum local = 4.86322e-05, global = -7.83059e-06, cumulative = 0.00283928
smoothSolver:  Solving for omega, Initial residual = 1.4971e-05, Final residual = 1.35216e-06, No Iterations 2
smoothSolver:  Solving for k, Initial residual = 0.0128808, Final residual = 0.000876228, No Iterations 4
ExecutionTime = 28.45 s  ClockTime = 28 s

Time = 70

smoothSolver:  Solving for Ux, Initial residual = 0.00193689, Final residual = 0.000138882, No Iterations 6
smoothSolver:  Solving for Uy, Initial residual = 0.0101624, Final residual = 0.00101608, No Iterations 5
GAMG:  Solving for p, Initial residual = 0.00777045, Final residual = 0.000772592, No Iterations 126
time step continuity errors : sum local = 4.62165e-05, global = -7.63359e-06, cumulative = 0.00283164
smoothSolver:  Solving for omega, Initial residual = 1.44858e-05, Final residual = 1.26219e-06, No Iterations 2
smoothSolver:  Solving for k, Initial residual = 0.0126589, Final residual = 0.000839143, No Iterations 4
ExecutionTime = 28.75 s  ClockTime = 28 s

Time = 71

smoothSolver:  Solving for Ux, Initial residual = 0.00189155, Final residual = 0.000136068, No Iterations 6
smoothSolver:  Solving for Uy, Initial residual = 0.00994143, Final residual = 0.000636434, No Iterations 6
GAMG:  Solving for p, Initial residual = 0.00726431, Final residual = 0.000722454, No Iterations 112
time step continuity errors : sum local = 4.52923e-05, global = -7.4947e-06, cumulative = 0.00282415
smoothSolver:  Solving for omega, Initial residual = 1.40272e-05, Final residual = 1.1957e-06, No Iterations 2
smoothSolver:  Solving for k, Initial residual = 0.0124355, Final residual = 0.00081694, No Iterations 4
ExecutionTime = 29.02 s  ClockTime = 29 s

Time = 72

smoothSolver:  Solving for Ux, Initial residual = 0.00185347, Final residual = 0.00013379, No Iterations 6
smoothSolver:  Solving for Uy, Initial residual = 0.00954172, Final residual = 0.000609439, No Iterations 6
GAMG:  Solving for p, Initial residual = 0.00652817, Final residual = 0.000651994, No Iterations 118
time step continuity errors : sum local = 4.27517e-05, global = -7.30575e-06, cumulative = 0.00281684
smoothSolver:  Solving for omega, Initial residual = 1.35995e-05, Final residual = 1.11855e-06, No Iterations 2
smoothSolver:  Solving for k, Initial residual = 0.0122204, Final residual = 0.000794129, No Iterations 4
ExecutionTime = 29.31 s  ClockTime = 29 s

Time = 73

smoothSolver:  Solving for Ux, Initial residual = 0.00181734, Final residual = 0.000131544, No Iterations 6
smoothSolver:  Solving for Uy, Initial residual = 0.00931517, Final residual = 0.00059635, No Iterations 6
GAMG:  Solving for p, Initial residual = 0.00599784, Final residual = 0.000596358, No Iterations 114
time step continuity errors : sum local = 4.06015e-05, global = -7.06682e-06, cumulative = 0.00280978
smoothSolver:  Solving for omega, Initial residual = 1.31974e-05, Final residual = 1.05136e-06, No Iterations 2
smoothSolver:  Solving for k, Initial residual = 0.012032, Final residual = 0.000766947, No Iterations 4
ExecutionTime = 29.58 s  ClockTime = 29 s

Time = 74

smoothSolver:  Solving for Ux, Initial residual = 0.00178274, Final residual = 0.000129513, No Iterations 6
smoothSolver:  Solving for Uy, Initial residual = 0.00912756, Final residual = 0.000586194, No Iterations 6
GAMG:  Solving for p, Initial residual = 0.00552332, Final residual = 0.000551824, No Iterations 108
time step continuity errors : sum local = 3.91314e-05, global = -6.8975e-06, cumulative = 0.00280288
smoothSolver:  Solving for omega, Initial residual = 1.27998e-05, Final residual = 9.84756e-07, No Iterations 2
smoothSolver:  Solving for k, Initial residual = 0.0118238, Final residual = 0.000742745, No Iterations 4
ExecutionTime = 29.85 s  ClockTime = 30 s

Time = 75

smoothSolver:  Solving for Ux, Initial residual = 0.00175175, Final residual = 0.000127623, No Iterations 6
smoothSolver:  Solving for Uy, Initial residual = 0.00895292, Final residual = 0.00057672, No Iterations 6
GAMG:  Solving for p, Initial residual = 0.005182, Final residual = 0.000517371, No Iterations 104
time step continuity errors : sum local = 3.77839e-05, global = -6.72166e-06, cumulative = 0.00279616
smoothSolver:  Solving for omega, Initial residual = 1.23905e-05, Final residual = 9.4033e-07, No Iterations 2
smoothSolver:  Solving for k, Initial residual = 0.0116539, Final residual = 0.000723082, No Iterations 4
ExecutionTime = 30.1 s  ClockTime = 30 s

Time = 76

smoothSolver:  Solving for Ux, Initial residual = 0.00172149, Final residual = 0.000125741, No Iterations 6
smoothSolver:  Solving for Uy, Initial residual = 0.0088043, Final residual = 0.000568105, No Iterations 6
GAMG:  Solving for p, Initial residual = 0.00484207, Final residual = 0.000482937, No Iterations 102
time step continuity errors : sum local = 3.64858e-05, global = -6.60239e-06, cumulative = 0.00278955
smoothSolver:  Solving for omega, Initial residual = 1.19771e-05, Final residual = 8.64514e-07, No Iterations 2
smoothSolver:  Solving for k, Initial residual = 0.0114526, Final residual = 0.000695975, No Iterations 4
ExecutionTime = 30.35 s  ClockTime = 30 s

Time = 77

smoothSolver:  Solving for Ux, Initial residual = 0.00169361, Final residual = 0.000123921, No Iterations 6
smoothSolver:  Solving for Uy, Initial residual = 0.00866493, Final residual = 0.000559698, No Iterations 6
GAMG:  Solving for p, Initial residual = 0.00457747, Final residual = 0.000457105, No Iterations 99
time step continuity errors : sum local = 3.53994e-05, global = 5.91446e-06, cumulative = 0.00279547
smoothSolver:  Solving for omega, Initial residual = 1.15747e-05, Final residual = 8.18908e-07, No Iterations 2
smoothSolver:  Solving for k, Initial residual = 0.0112558, Final residual = 0.000673916, No Iterations 4
ExecutionTime = 30.6 s  ClockTime = 30 s

Time = 78

smoothSolver:  Solving for Ux, Initial residual = 0.00166567, Final residual = 0.000122029, No Iterations 6
smoothSolver:  Solving for Uy, Initial residual = 0.00854504, Final residual = 0.000552854, No Iterations 6
GAMG:  Solving for p, Initial residual = 0.00425191, Final residual = 0.000424694, No Iterations 99
time step continuity errors : sum local = 3.38881e-05, global = 5.64444e-06, cumulative = 0.00280111
smoothSolver:  Solving for omega, Initial residual = 1.12e-05, Final residual = 7.61317e-07, No Iterations 2
smoothSolver:  Solving for k, Initial residual = 0.011038, Final residual = 0.000646958, No Iterations 4
ExecutionTime = 30.85 s  ClockTime = 31 s

Time = 79

smoothSolver:  Solving for Ux, Initial residual = 0.00163704, Final residual = 0.00012004, No Iterations 6
smoothSolver:  Solving for Uy, Initial residual = 0.0084364, Final residual = 0.000545649, No Iterations 6
GAMG:  Solving for p, Initial residual = 0.00398715, Final residual = 0.000398551, No Iterations 93
time step continuity errors : sum local = 3.25899e-05, global = 5.34435e-06, cumulative = 0.00280646
smoothSolver:  Solving for omega, Initial residual = 1.08129e-05, Final residual = 7.28406e-07, No Iterations 2
smoothSolver:  Solving for k, Initial residual = 0.0108447, Final residual = 0.000623263, No Iterations 4
ExecutionTime = 31.09 s  ClockTime = 31 s

Time = 80

smoothSolver:  Solving for Ux, Initial residual = 0.00160921, Final residual = 0.000118083, No Iterations 6
smoothSolver:  Solving for Uy, Initial residual = 0.00831833, Final residual = 0.000538069, No Iterations 6
GAMG:  Solving for p, Initial residual = 0.00373478, Final residual = 0.00037301, No Iterations 90
time step continuity errors : sum local = 3.13426e-05, global = -5.69946e-06, cumulative = 0.00280076
smoothSolver:  Solving for omega, Initial residual = 1.04499e-05, Final residual = 6.83172e-07, No Iterations 2
smoothSolver:  Solving for k, Initial residual = 0.010653, Final residual = 0.000600693, No Iterations 4
ExecutionTime = 31.31 s  ClockTime = 31 s

Time = 81

smoothSolver:  Solving for Ux, Initial residual = 0.00157994, Final residual = 0.000116033, No Iterations 6
smoothSolver:  Solving for Uy, Initial residual = 0.00821557, Final residual = 0.000530687, No Iterations 6
GAMG:  Solving for p, Initial residual = 0.0035706, Final residual = 0.000355575, No Iterations 85
time step continuity errors : sum local = 3.04032e-05, global = -5.46731e-06, cumulative = 0.00279529
smoothSolver:  Solving for omega, Initial residual = 1.01015e-05, Final residual = 6.54167e-07, No Iterations 2
smoothSolver:  Solving for k, Initial residual = 0.0104731, Final residual = 0.000580095, No Iterations 4
ExecutionTime = 31.53 s  ClockTime = 31 s

Time = 82

smoothSolver:  Solving for Ux, Initial residual = 0.00155138, Final residual = 0.000113976, No Iterations 6
smoothSolver:  Solving for Uy, Initial residual = 0.00808995, Final residual = 0.000523613, No Iterations 6
GAMG:  Solving for p, Initial residual = 0.00339831, Final residual = 0.000339634, No Iterations 82
time step continuity errors : sum local = 2.96603e-05, global = 4.67061e-06, cumulative = 0.00279996
smoothSolver:  Solving for omega, Initial residual = 9.75869e-06, Final residual = 6.19124e-07, No Iterations 2
smoothSolver:  Solving for k, Initial residual = 0.0102661, Final residual = 0.00101632, No Iterations 3
ExecutionTime = 31.74 s  ClockTime = 31 s

Time = 83

smoothSolver:  Solving for Ux, Initial residual = 0.00151925, Final residual = 0.000111719, No Iterations 6
smoothSolver:  Solving for Uy, Initial residual = 0.00796153, Final residual = 0.000515801, No Iterations 6
GAMG:  Solving for p, Initial residual = 0.0032454, Final residual = 0.000324533, No Iterations 80
time step continuity errors : sum local = 2.87844e-05, global = -5.16088e-06, cumulative = 0.0027948
smoothSolver:  Solving for omega, Initial residual = 9.36195e-06, Final residual = 5.92654e-07, No Iterations 2
smoothSolver:  Solving for k, Initial residual = 0.0100016, Final residual = 0.000962704, No Iterations 3
ExecutionTime = 31.95 s  ClockTime = 32 s

Time = 84

smoothSolver:  Solving for Ux, Initial residual = 0.00148747, Final residual = 0.000109442, No Iterations 6
smoothSolver:  Solving for Uy, Initial residual = 0.00783048, Final residual = 0.000507506, No Iterations 6
GAMG:  Solving for p, Initial residual = 0.00307667, Final residual = 0.000307515, No Iterations 78
time step continuity errors : sum local = 2.77587e-05, global = 4.34439e-06, cumulative = 0.00279914
smoothSolver:  Solving for omega, Initial residual = 9.00449e-06, Final residual = 5.52395e-07, No Iterations 2
smoothSolver:  Solving for k, Initial residual = 0.00978416, Final residual = 0.000921804, No Iterations 3
ExecutionTime = 32.16 s  ClockTime = 32 s

Time = 85

smoothSolver:  Solving for Ux, Initial residual = 0.00145474, Final residual = 0.000107131, No Iterations 6
smoothSolver:  Solving for Uy, Initial residual = 0.00771356, Final residual = 0.000500066, No Iterations 6
GAMG:  Solving for p, Initial residual = 0.00293084, Final residual = 0.000292749, No Iterations 75
time step continuity errors : sum local = 2.67829e-05, global = -4.61027e-06, cumulative = 0.00279453
smoothSolver:  Solving for omega, Initial residual = 8.66398e-06, Final residual = 5.25961e-07, No Iterations 2
smoothSolver:  Solving for k, Initial residual = 0.00957697, Final residual = 0.000881145, No Iterations 3
ExecutionTime = 32.35 s  ClockTime = 32 s

Time = 86

smoothSolver:  Solving for Ux, Initial residual = 0.00142256, Final residual = 0.000104769, No Iterations 6
smoothSolver:  Solving for Uy, Initial residual = 0.00758766, Final residual = 0.000491962, No Iterations 6
GAMG:  Solving for p, Initial residual = 0.00278469, Final residual = 0.000276724, No Iterations 71
time step continuity errors : sum local = 2.57813e-05, global = -4.37812e-06, cumulative = 0.00279016
smoothSolver:  Solving for omega, Initial residual = 8.3332e-06, Final residual = 5.02207e-07, No Iterations 2
smoothSolver:  Solving for k, Initial residual = 0.00939373, Final residual = 0.000863596, No Iterations 3
ExecutionTime = 32.54 s  ClockTime = 32 s

Time = 87

smoothSolver:  Solving for Ux, Initial residual = 0.00138965, Final residual = 0.000102435, No Iterations 6
smoothSolver:  Solving for Uy, Initial residual = 0.00747195, Final residual = 0.000483824, No Iterations 6
GAMG:  Solving for p, Initial residual = 0.00267152, Final residual = 0.00026423, No Iterations 72
time step continuity errors : sum local = 2.48819e-05, global = -4.28187e-06, cumulative = 0.00278587
smoothSolver:  Solving for omega, Initial residual = 8.02372e-06, Final residual = 4.77288e-07, No Iterations 2
smoothSolver:  Solving for k, Initial residual = 0.00919767, Final residual = 0.000823507, No Iterations 3
ExecutionTime = 32.74 s  ClockTime = 32 s

Time = 88

smoothSolver:  Solving for Ux, Initial residual = 0.00135668, Final residual = 0.000100062, No Iterations 6
smoothSolver:  Solving for Uy, Initial residual = 0.0073827, Final residual = 0.000476386, No Iterations 6
GAMG:  Solving for p, Initial residual = 0.00256344, Final residual = 0.000254547, No Iterations 72
time step continuity errors : sum local = 2.42516e-05, global = -4.25275e-06, cumulative = 0.00278162
smoothSolver:  Solving for omega, Initial residual = 7.72326e-06, Final residual = 4.5874e-07, No Iterations 2
smoothSolver:  Solving for k, Initial residual = 0.00900794, Final residual = 0.000790132, No Iterations 3
ExecutionTime = 32.93 s  ClockTime = 33 s

Time = 89

smoothSolver:  Solving for Ux, Initial residual = 0.00132476, Final residual = 9.77221e-05, No Iterations 6
smoothSolver:  Solving for Uy, Initial residual = 0.00728407, Final residual = 0.000468145, No Iterations 6
GAMG:  Solving for p, Initial residual = 0.00247285, Final residual = 0.000246966, No Iterations 72
time step continuity errors : sum local = 2.37514e-05, global = -4.25203e-06, cumulative = 0.00277737
smoothSolver:  Solving for omega, Initial residual = 7.43045e-06, Final residual = 4.3927e-07, No Iterations 2
smoothSolver:  Solving for k, Initial residual = 0.0087992, Final residual = 0.000761405, No Iterations 3
ExecutionTime = 33.12 s  ClockTime = 33 s

Time = 90

smoothSolver:  Solving for Ux, Initial residual = 0.00129212, Final residual = 9.53375e-05, No Iterations 6
smoothSolver:  Solving for Uy, Initial residual = 0.00717741, Final residual = 0.000460154, No Iterations 6
GAMG:  Solving for p, Initial residual = 0.00237577, Final residual = 0.000236635, No Iterations 73
time step continuity errors : sum local = 2.30256e-05, global = 3.51295e-06, cumulative = 0.00278088
smoothSolver:  Solving for omega, Initial residual = 7.15218e-06, Final residual = 4.19806e-07, No Iterations 2
smoothSolver:  Solving for k, Initial residual = 0.00857491, Final residual = 0.000722863, No Iterations 3
ExecutionTime = 33.31 s  ClockTime = 33 s

Time = 91

smoothSolver:  Solving for Ux, Initial residual = 0.00125983, Final residual = 9.29238e-05, No Iterations 6
smoothSolver:  Solving for Uy, Initial residual = 0.00706075, Final residual = 0.000452113, No Iterations 6
GAMG:  Solving for p, Initial residual = 0.00227097, Final residual = 0.000226161, No Iterations 73
time step continuity errors : sum local = 2.21992e-05, global = 3.34482e-06, cumulative = 0.00278423
smoothSolver:  Solving for omega, Initial residual = 6.87839e-06, Final residual = 4.00594e-07, No Iterations 2
smoothSolver:  Solving for k, Initial residual = 0.00841842, Final residual = 0.00070666, No Iterations 3
ExecutionTime = 33.51 s  ClockTime = 33 s

Time = 92

smoothSolver:  Solving for Ux, Initial residual = 0.00122714, Final residual = 9.04841e-05, No Iterations 6
smoothSolver:  Solving for Uy, Initial residual = 0.00693053, Final residual = 0.00044381, No Iterations 6
GAMG:  Solving for p, Initial residual = 0.00216982, Final residual = 0.000213934, No Iterations 73
time step continuity errors : sum local = 2.12566e-05, global = 3.16404e-06, cumulative = 0.00278739
smoothSolver:  Solving for omega, Initial residual = 6.61697e-06, Final residual = 3.86926e-07, No Iterations 2
smoothSolver:  Solving for k, Initial residual = 0.00821354, Final residual = 0.000676812, No Iterations 3
ExecutionTime = 33.7 s  ClockTime = 33 s

Time = 93

smoothSolver:  Solving for Ux, Initial residual = 0.00119432, Final residual = 8.80465e-05, No Iterations 6
smoothSolver:  Solving for Uy, Initial residual = 0.006799, Final residual = 0.000435271, No Iterations 6
GAMG:  Solving for p, Initial residual = 0.00209073, Final residual = 0.000207036, No Iterations 69
time step continuity errors : sum local = 2.07213e-05, global = 3.01437e-06, cumulative = 0.00279041
smoothSolver:  Solving for omega, Initial residual = 6.35997e-06, Final residual = 3.68869e-07, No Iterations 2
smoothSolver:  Solving for k, Initial residual = 0.00802802, Final residual = 0.000648419, No Iterations 3
ExecutionTime = 33.89 s  ClockTime = 34 s

Time = 94

smoothSolver:  Solving for Ux, Initial residual = 0.00116091, Final residual = 8.55903e-05, No Iterations 6
smoothSolver:  Solving for Uy, Initial residual = 0.00667329, Final residual = 0.000426591, No Iterations 6
GAMG:  Solving for p, Initial residual = 0.0020173, Final residual = 0.000200524, No Iterations 67
time step continuity errors : sum local = 2.02774e-05, global = 2.88419e-06, cumulative = 0.00279329
smoothSolver:  Solving for omega, Initial residual = 6.10778e-06, Final residual = 3.52195e-07, No Iterations 2
smoothSolver:  Solving for k, Initial residual = 0.00784919, Final residual = 0.000622097, No Iterations 3
ExecutionTime = 34.07 s  ClockTime = 34 s

Time = 95

smoothSolver:  Solving for Ux, Initial residual = 0.00112827, Final residual = 8.31404e-05, No Iterations 6
smoothSolver:  Solving for Uy, Initial residual = 0.00656395, Final residual = 0.000418514, No Iterations 6
GAMG:  Solving for p, Initial residual = 0.00195136, Final residual = 0.000192764, No Iterations 68
time step continuity errors : sum local = 1.95777e-05, global = 2.75024e-06, cumulative = 0.00279604
smoothSolver:  Solving for omega, Initial residual = 5.86548e-06, Final residual = 3.39943e-07, No Iterations 2
smoothSolver:  Solving for k, Initial residual = 0.00767689, Final residual = 0.000597217, No Iterations 3
ExecutionTime = 34.26 s  ClockTime = 34 s

Time = 96

smoothSolver:  Solving for Ux, Initial residual = 0.0010952, Final residual = 8.06888e-05, No Iterations 6
smoothSolver:  Solving for Uy, Initial residual = 0.00644737, Final residual = 0.000643292, No Iterations 5
GAMG:  Solving for p, Initial residual = 0.00183677, Final residual = 0.000181521, No Iterations 70
time step continuity errors : sum local = 1.86029e-05, global = 2.60458e-06, cumulative = 0.00279865
smoothSolver:  Solving for omega, Initial residual = 5.63238e-06, Final residual = 3.27604e-07, No Iterations 2
smoothSolver:  Solving for k, Initial residual = 0.00750733, Final residual = 0.000581692, No Iterations 3
ExecutionTime = 34.44 s  ClockTime = 34 s

Time = 97

smoothSolver:  Solving for Ux, Initial residual = 0.00106092, Final residual = 7.81654e-05, No Iterations 6
smoothSolver:  Solving for Uy, Initial residual = 0.00646133, Final residual = 0.000644696, No Iterations 5
GAMG:  Solving for p, Initial residual = 0.00181969, Final residual = 0.000181281, No Iterations 66
time step continuity errors : sum local = 1.86165e-05, global = 2.5329e-06, cumulative = 0.00280118
smoothSolver:  Solving for omega, Initial residual = 5.4009e-06, Final residual = 9.88084e-07, No Iterations 1
smoothSolver:  Solving for k, Initial residual = 0.00737802, Final residual = 0.000562351, No Iterations 3
ExecutionTime = 34.62 s  ClockTime = 34 s

Time = 98

smoothSolver:  Solving for Ux, Initial residual = 0.00102523, Final residual = 7.54902e-05, No Iterations 6
smoothSolver:  Solving for Uy, Initial residual = 0.00637766, Final residual = 0.000635386, No Iterations 5
GAMG:  Solving for p, Initial residual = 0.00177156, Final residual = 0.000176775, No Iterations 70
time step continuity errors : sum local = 1.82958e-05, global = 2.42941e-06, cumulative = 0.00280361
smoothSolver:  Solving for omega, Initial residual = 5.561e-06, Final residual = 3.21384e-07, No Iterations 2
smoothSolver:  Solving for k, Initial residual = 0.00721928, Final residual = 0.000545265, No Iterations 3
ExecutionTime = 34.81 s  ClockTime = 34 s

Time = 99

smoothSolver:  Solving for Ux, Initial residual = 0.000993437, Final residual = 7.3107e-05, No Iterations 6
smoothSolver:  Solving for Uy, Initial residual = 0.0062747, Final residual = 0.00062247, No Iterations 5
GAMG:  Solving for p, Initial residual = 0.00173647, Final residual = 0.00017359, No Iterations 70
time step continuity errors : sum local = 1.79619e-05, global = 2.32213e-06, cumulative = 0.00280593
smoothSolver:  Solving for omega, Initial residual = 4.88313e-06, Final residual = 9.19208e-07, No Iterations 1
smoothSolver:  Solving for k, Initial residual = 0.00709269, Final residual = 0.000531666, No Iterations 3
ExecutionTime = 35 s  ClockTime = 35 s

Time = 100

smoothSolver:  Solving for Ux, Initial residual = 0.000959653, Final residual = 7.05444e-05, No Iterations 6
smoothSolver:  Solving for Uy, Initial residual = 0.00615768, Final residual = 0.000609151, No Iterations 5
GAMG:  Solving for p, Initial residual = 0.0016653, Final residual = 0.000164439, No Iterations 76
time step continuity errors : sum local = 1.71342e-05, global = 2.16439e-06, cumulative = 0.00280809
smoothSolver:  Solving for omega, Initial residual = 5.20458e-06, Final residual = 9.69521e-07, No Iterations 1
smoothSolver:  Solving for k, Initial residual = 0.00694077, Final residual = 0.000512257, No Iterations 3
ExecutionTime = 35.19 s  ClockTime = 35 s

Time = 101

smoothSolver:  Solving for Ux, Initial residual = 0.000926788, Final residual = 6.80607e-05, No Iterations 6
smoothSolver:  Solving for Uy, Initial residual = 0.00604313, Final residual = 0.000595425, No Iterations 5
GAMG:  Solving for p, Initial residual = 0.00163255, Final residual = 0.000161232, No Iterations 74
time step continuity errors : sum local = 1.67864e-05, global = 2.04133e-06, cumulative = 0.00281014
smoothSolver:  Solving for omega, Initial residual = 4.90152e-06, Final residual = 9.56161e-07, No Iterations 1
smoothSolver:  Solving for k, Initial residual = 0.00681619, Final residual = 0.000499477, No Iterations 3
ExecutionTime = 35.39 s  ClockTime = 35 s

Time = 102

smoothSolver:  Solving for Ux, Initial residual = 0.000894602, Final residual = 6.56339e-05, No Iterations 6
smoothSolver:  Solving for Uy, Initial residual = 0.00592, Final residual = 0.000581809, No Iterations 5
GAMG:  Solving for p, Initial residual = 0.00158174, Final residual = 0.000156454, No Iterations 74
time step continuity errors : sum local = 1.63799e-05, global = 1.93387e-06, cumulative = 0.00281207
smoothSolver:  Solving for omega, Initial residual = 4.81312e-06, Final residual = 9.45477e-07, No Iterations 1
smoothSolver:  Solving for k, Initial residual = 0.00667668, Final residual = 0.000482269, No Iterations 3
ExecutionTime = 35.58 s  ClockTime = 35 s

Time = 103

smoothSolver:  Solving for Ux, Initial residual = 0.000863452, Final residual = 6.32921e-05, No Iterations 6
smoothSolver:  Solving for Uy, Initial residual = 0.00579711, Final residual = 0.000568225, No Iterations 5
GAMG:  Solving for p, Initial residual = 0.00153859, Final residual = 0.000153575, No Iterations 72
time step continuity errors : sum local = 1.60556e-05, global = 1.84559e-06, cumulative = 0.00281391
smoothSolver:  Solving for omega, Initial residual = 4.60789e-06, Final residual = 9.26847e-07, No Iterations 1
smoothSolver:  Solving for k, Initial residual = 0.00651943, Final residual = 0.000467542, No Iterations 3
ExecutionTime = 35.77 s  ClockTime = 35 s

Time = 104

smoothSolver:  Solving for Ux, Initial residual = 0.000833812, Final residual = 6.10311e-05, No Iterations 6
smoothSolver:  Solving for Uy, Initial residual = 0.00567527, Final residual = 0.000554904, No Iterations 5
GAMG:  Solving for p, Initial residual = 0.00149514, Final residual = 0.000149138, No Iterations 72
time step continuity errors : sum local = 1.566e-05, global = 1.76989e-06, cumulative = 0.00281568
smoothSolver:  Solving for omega, Initial residual = 4.46053e-06, Final residual = 9.04429e-07, No Iterations 1
smoothSolver:  Solving for k, Initial residual = 0.00637097, Final residual = 0.000445718, No Iterations 3
ExecutionTime = 35.96 s  ClockTime = 36 s

Time = 105

smoothSolver:  Solving for Ux, Initial residual = 0.000805866, Final residual = 5.88533e-05, No Iterations 6
smoothSolver:  Solving for Uy, Initial residual = 0.00555354, Final residual = 0.000541489, No Iterations 5
GAMG:  Solving for p, Initial residual = 0.00146419, Final residual = 0.000145024, No Iterations 72
time step continuity errors : sum local = 1.51864e-05, global = 1.69427e-06, cumulative = 0.00281738
smoothSolver:  Solving for omega, Initial residual = 4.28339e-06, Final residual = 8.79651e-07, No Iterations 1
smoothSolver:  Solving for k, Initial residual = 0.00619557, Final residual = 0.00043008, No Iterations 3
ExecutionTime = 36.15 s  ClockTime = 36 s

Time = 106

smoothSolver:  Solving for Ux, Initial residual = 0.000779453, Final residual = 5.6754e-05, No Iterations 6
smoothSolver:  Solving for Uy, Initial residual = 0.00543686, Final residual = 0.0005284, No Iterations 5
GAMG:  Solving for p, Initial residual = 0.00142049, Final residual = 0.000141852, No Iterations 70
time step continuity errors : sum local = 1.4912e-05, global = 1.65599e-06, cumulative = 0.00281903
smoothSolver:  Solving for omega, Initial residual = 4.12726e-06, Final residual = 8.58564e-07, No Iterations 1
smoothSolver:  Solving for k, Initial residual = 0.00603778, Final residual = 0.000413056, No Iterations 3
ExecutionTime = 36.34 s  ClockTime = 36 s

Time = 107

smoothSolver:  Solving for Ux, Initial residual = 0.000754388, Final residual = 5.47417e-05, No Iterations 6
smoothSolver:  Solving for Uy, Initial residual = 0.00531633, Final residual = 0.000515359, No Iterations 5
GAMG:  Solving for p, Initial residual = 0.00139133, Final residual = 0.000138339, No Iterations 70
time step continuity errors : sum local = 1.45021e-05, global = 1.60568e-06, cumulative = 0.00282064
smoothSolver:  Solving for omega, Initial residual = 3.96557e-06, Final residual = 8.3179e-07, No Iterations 1
smoothSolver:  Solving for k, Initial residual = 0.00589742, Final residual = 0.000396316, No Iterations 3
ExecutionTime = 36.52 s  ClockTime = 36 s

Time = 108

smoothSolver:  Solving for Ux, Initial residual = 0.00073088, Final residual = 5.28081e-05, No Iterations 6
smoothSolver:  Solving for Uy, Initial residual = 0.00520045, Final residual = 0.000502661, No Iterations 5
GAMG:  Solving for p, Initial residual = 0.00135135, Final residual = 0.000133768, No Iterations 70
time step continuity errors : sum local = 1.40749e-05, global = 1.55667e-06, cumulative = 0.0028222
smoothSolver:  Solving for omega, Initial residual = 3.8091e-06, Final residual = 8.06587e-07, No Iterations 1
smoothSolver:  Solving for k, Initial residual = 0.00572372, Final residual = 0.000377489, No Iterations 3
ExecutionTime = 36.71 s  ClockTime = 36 s

Time = 109

smoothSolver:  Solving for Ux, Initial residual = 0.000708069, Final residual = 5.09558e-05, No Iterations 6
smoothSolver:  Solving for Uy, Initial residual = 0.00509086, Final residual = 0.000490523, No Iterations 5
GAMG:  Solving for p, Initial residual = 0.00131231, Final residual = 0.000129947, No Iterations 70
time step continuity errors : sum local = 1.36296e-05, global = 1.49506e-06, cumulative = 0.00282369
smoothSolver:  Solving for omega, Initial residual = 3.65597e-06, Final residual = 7.82463e-07, No Iterations 1
smoothSolver:  Solving for k, Initial residual = 0.00558035, Final residual = 0.000366238, No Iterations 3
ExecutionTime = 36.89 s  ClockTime = 37 s

Time = 110

smoothSolver:  Solving for Ux, Initial residual = 0.000686121, Final residual = 4.91865e-05, No Iterations 6
smoothSolver:  Solving for Uy, Initial residual = 0.00497691, Final residual = 0.000478361, No Iterations 5
GAMG:  Solving for p, Initial residual = 0.00128007, Final residual = 0.000126901, No Iterations 68
time step continuity errors : sum local = 1.33625e-05, global = 1.45603e-06, cumulative = 0.00282515
smoothSolver:  Solving for omega, Initial residual = 3.50562e-06, Final residual = 7.52329e-07, No Iterations 1
smoothSolver:  Solving for k, Initial residual = 0.00540799, Final residual = 0.000345489, No Iterations 3
ExecutionTime = 37.08 s  ClockTime = 37 s

Time = 111

smoothSolver:  Solving for Ux, Initial residual = 0.000664608, Final residual = 4.74849e-05, No Iterations 6
smoothSolver:  Solving for Uy, Initial residual = 0.00486655, Final residual = 0.000466626, No Iterations 5
GAMG:  Solving for p, Initial residual = 0.00125279, Final residual = 0.000123916, No Iterations 68
time step continuity errors : sum local = 1.30133e-05, global = 1.39945e-06, cumulative = 0.00282655
smoothSolver:  Solving for omega, Initial residual = 3.36207e-06, Final residual = 7.25308e-07, No Iterations 1
smoothSolver:  Solving for k, Initial residual = 0.00524584, Final residual = 0.000334005, No Iterations 3
ExecutionTime = 37.26 s  ClockTime = 37 s

Time = 112

smoothSolver:  Solving for Ux, Initial residual = 0.000644107, Final residual = 4.58542e-05, No Iterations 6
smoothSolver:  Solving for Uy, Initial residual = 0.00475967, Final residual = 0.000455371, No Iterations 5
GAMG:  Solving for p, Initial residual = 0.00121228, Final residual = 0.000120246, No Iterations 68
[...]
time step continuity errors : sum local = 6.28892e-08, global = 6.21994e-09, cumulative = 0.00290873
smoothSolver:  Solving for omega, Initial residual = 7.62214e-07, Final residual = 7.62214e-07, No Iterations 0
smoothSolver:  Solving for k, Initial residual = 1.92004e-05, Final residual = 1.22918e-06, No Iterations 4
ExecutionTime = 124.57 s  ClockTime = 124 s

Time = 529

smoothSolver:  Solving for Ux, Initial residual = 4.99661e-06, Final residual = 9.24934e-07, No Iterations 4
smoothSolver:  Solving for Uy, Initial residual = 2.68116e-05, Final residual = 2.11814e-06, No Iterations 6
GAMG:  Solving for p, Initial residual = 5.41147e-06, Final residual = 9.9982e-07, No Iterations 56
time step continuity errors : sum local = 6.31002e-08, global = 6.31714e-09, cumulative = 0.00290874
smoothSolver:  Solving for omega, Initial residual = 7.64079e-07, Final residual = 7.64079e-07, No Iterations 0
smoothSolver:  Solving for k, Initial residual = 1.87739e-05, Final residual = 1.20124e-06, No Iterations 4
ExecutionTime = 124.72 s  ClockTime = 124 s

Time = 530

smoothSolver:  Solving for Ux, Initial residual = 4.83812e-06, Final residual = 8.95169e-07, No Iterations 4
smoothSolver:  Solving for Uy, Initial residual = 2.61578e-05, Final residual = 2.06485e-06, No Iterations 6
GAMG:  Solving for p, Initial residual = 5.26234e-06, Final residual = 9.92076e-07, No Iterations 56
time step continuity errors : sum local = 6.25527e-08, global = 6.35008e-09, cumulative = 0.00290874
smoothSolver:  Solving for omega, Initial residual = 7.65932e-07, Final residual = 7.65932e-07, No Iterations 0
smoothSolver:  Solving for k, Initial residual = 1.83554e-05, Final residual = 1.17445e-06, No Iterations 4
ExecutionTime = 124.88 s  ClockTime = 125 s

Time = 531

smoothSolver:  Solving for Ux, Initial residual = 4.68427e-06, Final residual = 8.66356e-07, No Iterations 4
smoothSolver:  Solving for Uy, Initial residual = 2.5526e-05, Final residual = 2.01268e-06, No Iterations 6
GAMG:  Solving for p, Initial residual = 5.11281e-06, Final residual = 9.86958e-07, No Iterations 54
time step continuity errors : sum local = 6.21736e-08, global = 6.39194e-09, cumulative = 0.00290875
smoothSolver:  Solving for omega, Initial residual = 7.67732e-07, Final residual = 7.67732e-07, No Iterations 0
smoothSolver:  Solving for k, Initial residual = 1.79526e-05, Final residual = 1.14745e-06, No Iterations 4
ExecutionTime = 125.04 s  ClockTime = 125 s

Time = 532

smoothSolver:  Solving for Ux, Initial residual = 4.53488e-06, Final residual = 8.38447e-07, No Iterations 4
smoothSolver:  Solving for Uy, Initial residual = 2.48793e-05, Final residual = 1.95954e-06, No Iterations 6
GAMG:  Solving for p, Initial residual = 4.96298e-06, Final residual = 9.86225e-07, No Iterations 52
time step continuity errors : sum local = 6.20734e-08, global = 6.4546e-09, cumulative = 0.00290875
smoothSolver:  Solving for omega, Initial residual = 7.69517e-07, Final residual = 7.69517e-07, No Iterations 0
smoothSolver:  Solving for k, Initial residual = 1.75545e-05, Final residual = 1.12152e-06, No Iterations 4
ExecutionTime = 125.19 s  ClockTime = 125 s

Time = 533

smoothSolver:  Solving for Ux, Initial residual = 4.38943e-06, Final residual = 8.11357e-07, No Iterations 4
smoothSolver:  Solving for Uy, Initial residual = 2.42247e-05, Final residual = 1.90563e-06, No Iterations 6
GAMG:  Solving for p, Initial residual = 4.82291e-06, Final residual = 9.90424e-07, No Iterations 50
time step continuity errors : sum local = 6.22853e-08, global = 6.53787e-09, cumulative = 0.00290876
smoothSolver:  Solving for omega, Initial residual = 7.71368e-07, Final residual = 7.71368e-07, No Iterations 0
smoothSolver:  Solving for k, Initial residual = 1.71711e-05, Final residual = 1.09534e-06, No Iterations 4
ExecutionTime = 125.34 s  ClockTime = 125 s

Time = 534

smoothSolver:  Solving for Ux, Initial residual = 4.24804e-06, Final residual = 7.85051e-07, No Iterations 4
smoothSolver:  Solving for Uy, Initial residual = 2.35639e-05, Final residual = 1.85091e-06, No Iterations 6
GAMG:  Solving for p, Initial residual = 4.69073e-06, Final residual = 9.99626e-07, No Iterations 48
time step continuity errors : sum local = 6.28132e-08, global = 6.63829e-09, cumulative = 0.00290877
smoothSolver:  Solving for omega, Initial residual = 7.73253e-07, Final residual = 7.73253e-07, No Iterations 0
smoothSolver:  Solving for k, Initial residual = 1.67872e-05, Final residual = 1.06997e-06, No Iterations 4
ExecutionTime = 125.48 s  ClockTime = 125 s

Time = 535

smoothSolver:  Solving for Ux, Initial residual = 4.11053e-06, Final residual = 7.59515e-07, No Iterations 4
smoothSolver:  Solving for Uy, Initial residual = 2.28963e-05, Final residual = 1.79543e-06, No Iterations 6
GAMG:  Solving for p, Initial residual = 4.56876e-06, Final residual = 9.97758e-07, No Iterations 48
time step continuity errors : sum local = 6.2647e-08, global = 6.66213e-09, cumulative = 0.00290877
smoothSolver:  Solving for omega, Initial residual = 7.75146e-07, Final residual = 7.75146e-07, No Iterations 0
smoothSolver:  Solving for k, Initial residual = 1.64232e-05, Final residual = 1.04459e-06, No Iterations 4
ExecutionTime = 125.62 s  ClockTime = 125 s

Time = 536

smoothSolver:  Solving for Ux, Initial residual = 3.97709e-06, Final residual = 7.34727e-07, No Iterations 4
smoothSolver:  Solving for Uy, Initial residual = 2.22252e-05, Final residual = 1.73934e-06, No Iterations 6
GAMG:  Solving for p, Initial residual = 4.44824e-06, Final residual = 9.98857e-07, No Iterations 46
time step continuity errors : sum local = 6.2669e-08, global = 6.68841e-09, cumulative = 0.00290878
smoothSolver:  Solving for omega, Initial residual = 7.76991e-07, Final residual = 7.76991e-07, No Iterations 0
smoothSolver:  Solving for k, Initial residual = 1.60577e-05, Final residual = 1.02003e-06, No Iterations 4
ExecutionTime = 125.76 s  ClockTime = 125 s

Time = 537

smoothSolver:  Solving for Ux, Initial residual = 3.84778e-06, Final residual = 7.10707e-07, No Iterations 4
smoothSolver:  Solving for Uy, Initial residual = 2.15499e-05, Final residual = 1.68316e-06, No Iterations 6
GAMG:  Solving for p, Initial residual = 4.33302e-06, Final residual = 9.88959e-07, No Iterations 46
time step continuity errors : sum local = 6.20031e-08, global = 6.64613e-09, cumulative = 0.00290879
smoothSolver:  Solving for omega, Initial residual = 7.7878e-07, Final residual = 7.7878e-07, No Iterations 0
smoothSolver:  Solving for k, Initial residual = 1.57082e-05, Final residual = 9.95228e-07, No Iterations 4
ExecutionTime = 125.9 s  ClockTime = 126 s

Time = 538

smoothSolver:  Solving for Ux, Initial residual = 3.72243e-06, Final residual = 6.87395e-07, No Iterations 4
smoothSolver:  Solving for Uy, Initial residual = 2.08753e-05, Final residual = 1.62677e-06, No Iterations 6
GAMG:  Solving for p, Initial residual = 4.21991e-06, Final residual = 9.98733e-07, No Iterations 42
time step continuity errors : sum local = 6.25723e-08, global = 6.70609e-09, cumulative = 0.00290879
smoothSolver:  Solving for omega, Initial residual = 7.80531e-07, Final residual = 7.80531e-07, No Iterations 0
smoothSolver:  Solving for k, Initial residual = 1.53565e-05, Final residual = 9.7124e-07, No Iterations 4
ExecutionTime = 126.02 s  ClockTime = 126 s

Time = 539

smoothSolver:  Solving for Ux, Initial residual = 3.60065e-06, Final residual = 6.64831e-07, No Iterations 4
smoothSolver:  Solving for Uy, Initial residual = 2.01942e-05, Final residual = 1.57053e-06, No Iterations 6
GAMG:  Solving for p, Initial residual = 4.11758e-06, Final residual = 9.99527e-07, No Iterations 42
time step continuity errors : sum local = 6.258e-08, global = 6.72114e-09, cumulative = 0.0029088
smoothSolver:  Solving for omega, Initial residual = 7.82242e-07, Final residual = 7.82242e-07, No Iterations 0
smoothSolver:  Solving for k, Initial residual = 1.50225e-05, Final residual = 9.47157e-07, No Iterations 4
ExecutionTime = 126.16 s  ClockTime = 126 s

Time = 540

smoothSolver:  Solving for Ux, Initial residual = 3.48232e-06, Final residual = 9.78161e-07, No Iterations 3
smoothSolver:  Solving for Uy, Initial residual = 1.95141e-05, Final residual = 1.51398e-06, No Iterations 6
GAMG:  Solving for p, Initial residual = 4.02712e-06, Final residual = 9.89769e-07, No Iterations 38
time step continuity errors : sum local = 6.1929e-08, global = 6.58397e-09, cumulative = 0.00290881
smoothSolver:  Solving for omega, Initial residual = 7.83747e-07, Final residual = 7.83747e-07, No Iterations 0
smoothSolver:  Solving for k, Initial residual = 1.46705e-05, Final residual = 9.23184e-07, No Iterations 4
ExecutionTime = 126.28 s  ClockTime = 126 s

Time = 541

smoothSolver:  Solving for Ux, Initial residual = 3.38234e-06, Final residual = 9.49993e-07, No Iterations 3
smoothSolver:  Solving for Uy, Initial residual = 1.7498e-05, Final residual = 1.35177e-06, No Iterations 6
GAMG:  Solving for p, Initial residual = 3.81905e-06, Final residual = 9.99393e-07, No Iterations 34
time step continuity errors : sum local = 6.24922e-08, global = 6.70847e-09, cumulative = 0.00290881
smoothSolver:  Solving for omega, Initial residual = 7.85253e-07, Final residual = 7.85253e-07, No Iterations 0
smoothSolver:  Solving for k, Initial residual = 1.43402e-05, Final residual = 8.99362e-07, No Iterations 4
ExecutionTime = 126.39 s  ClockTime = 126 s

Time = 542

smoothSolver:  Solving for Ux, Initial residual = 3.28223e-06, Final residual = 9.21901e-07, No Iterations 3
smoothSolver:  Solving for Uy, Initial residual = 1.66636e-05, Final residual = 1.28311e-06, No Iterations 6
GAMG:  Solving for p, Initial residual = 3.72934e-06, Final residual = 9.99325e-07, No Iterations 34
time step continuity errors : sum local = 6.24504e-08, global = 6.73945e-09, cumulative = 0.00290882
smoothSolver:  Solving for omega, Initial residual = 7.86734e-07, Final residual = 7.86734e-07, No Iterations 0
smoothSolver:  Solving for k, Initial residual = 1.40064e-05, Final residual = 8.76155e-07, No Iterations 4
ExecutionTime = 126.5 s  ClockTime = 126 s

Time = 543

smoothSolver:  Solving for Ux, Initial residual = 3.18431e-06, Final residual = 8.94375e-07, No Iterations 3
smoothSolver:  Solving for Uy, Initial residual = 1.60539e-05, Final residual = 1.23364e-06, No Iterations 6
GAMG:  Solving for p, Initial residual = 3.65063e-06, Final residual = 9.91808e-07, No Iterations 34
time step continuity errors : sum local = 6.19447e-08, global = 6.72064e-09, cumulative = 0.00290883
smoothSolver:  Solving for omega, Initial residual = 7.88188e-07, Final residual = 7.88188e-07, No Iterations 0
smoothSolver:  Solving for k, Initial residual = 1.36873e-05, Final residual = 8.52871e-07, No Iterations 4
ExecutionTime = 126.62 s  ClockTime = 126 s

Time = 544

smoothSolver:  Solving for Ux, Initial residual = 3.08928e-06, Final residual = 8.67653e-07, No Iterations 3
smoothSolver:  Solving for Uy, Initial residual = 1.54864e-05, Final residual = 1.18742e-06, No Iterations 6
GAMG:  Solving for p, Initial residual = 3.56683e-06, Final residual = 9.92909e-07, No Iterations 32
time step continuity errors : sum local = 6.19787e-08, global = 6.74382e-09, cumulative = 0.00290883
smoothSolver:  Solving for omega, Initial residual = 7.89626e-07, Final residual = 7.89626e-07, No Iterations 0
smoothSolver:  Solving for k, Initial residual = 1.33663e-05, Final residual = 8.30328e-07, No Iterations 4
ExecutionTime = 126.73 s  ClockTime = 126 s

Time = 545

smoothSolver:  Solving for Ux, Initial residual = 2.99736e-06, Final residual = 8.41808e-07, No Iterations 3
smoothSolver:  Solving for Uy, Initial residual = 1.49169e-05, Final residual = 1.1418e-06, No Iterations 6
GAMG:  Solving for p, Initial residual = 3.48672e-06, Final residual = 9.86139e-07, No Iterations 32
time step continuity errors : sum local = 6.15229e-08, global = 6.73031e-09, cumulative = 0.00290884
smoothSolver:  Solving for omega, Initial residual = 7.91058e-07, Final residual = 7.91058e-07, No Iterations 0
smoothSolver:  Solving for k, Initial residual = 1.30596e-05, Final residual = 8.07695e-07, No Iterations 4
ExecutionTime = 126.84 s  ClockTime = 127 s

Time = 546

smoothSolver:  Solving for Ux, Initial residual = 2.90811e-06, Final residual = 8.16687e-07, No Iterations 3
smoothSolver:  Solving for Uy, Initial residual = 1.4354e-05, Final residual = 1.09612e-06, No Iterations 6
GAMG:  Solving for p, Initial residual = 3.40814e-06, Final residual = 9.88133e-07, No Iterations 30
time step continuity errors : sum local = 6.16151e-08, global = 6.76173e-09, cumulative = 0.00290885
smoothSolver:  Solving for omega, Initial residual = 7.92459e-07, Final residual = 7.92459e-07, No Iterations 0
smoothSolver:  Solving for k, Initial residual = 1.27476e-05, Final residual = 7.85625e-07, No Iterations 4
ExecutionTime = 126.94 s  ClockTime = 127 s

Time = 547

smoothSolver:  Solving for Ux, Initial residual = 2.82169e-06, Final residual = 7.92353e-07, No Iterations 3
smoothSolver:  Solving for Uy, Initial residual = 1.3794e-05, Final residual = 1.05131e-06, No Iterations 6
GAMG:  Solving for p, Initial residual = 3.33127e-06, Final residual = 9.98876e-07, No Iterations 28
time step continuity errors : sum local = 6.22537e-08, global = 6.85311e-09, cumulative = 0.00290885
smoothSolver:  Solving for omega, Initial residual = 7.93834e-07, Final residual = 7.93834e-07, No Iterations 0
smoothSolver:  Solving for k, Initial residual = 1.24534e-05, Final residual = 7.63778e-07, No Iterations 4
ExecutionTime = 127.04 s  ClockTime = 127 s

Time = 548

smoothSolver:  Solving for Ux, Initial residual = 2.73783e-06, Final residual = 7.68724e-07, No Iterations 3
smoothSolver:  Solving for Uy, Initial residual = 1.32507e-05, Final residual = 1.00741e-06, No Iterations 6
GAMG:  Solving for p, Initial residual = 3.26127e-06, Final residual = 9.97601e-07, No Iterations 29
time step continuity errors : sum local = 6.21441e-08, global = -5.75e-09, cumulative = 0.00290885
smoothSolver:  Solving for omega, Initial residual = 7.95183e-07, Final residual = 7.95183e-07, No Iterations 0
smoothSolver:  Solving for k, Initial residual = 1.21552e-05, Final residual = 7.4246e-07, No Iterations 4
ExecutionTime = 127.14 s  ClockTime = 127 s

Time = 549

smoothSolver:  Solving for Ux, Initial residual = 2.65609e-06, Final residual = 7.45664e-07, No Iterations 3
smoothSolver:  Solving for Uy, Initial residual = 1.27046e-05, Final residual = 9.63776e-07, No Iterations 6
GAMG:  Solving for p, Initial residual = 3.18465e-06, Final residual = 9.95953e-07, No Iterations 26
time step continuity errors : sum local = 6.20122e-08, global = 6.85003e-09, cumulative = 0.00290886
smoothSolver:  Solving for omega, Initial residual = 7.96505e-07, Final residual = 7.96505e-07, No Iterations 0
smoothSolver:  Solving for k, Initial residual = 1.18717e-05, Final residual = 7.21266e-07, No Iterations 4
ExecutionTime = 127.24 s  ClockTime = 127 s

Time = 550

smoothSolver:  Solving for Ux, Initial residual = 2.57728e-06, Final residual = 7.23329e-07, No Iterations 3
smoothSolver:  Solving for Uy, Initial residual = 1.21741e-05, Final residual = 9.21237e-07, No Iterations 6
GAMG:  Solving for p, Initial residual = 3.10541e-06, Final residual = 9.88567e-07, No Iterations 26
time step continuity errors : sum local = 6.15245e-08, global = 6.84019e-09, cumulative = 0.00290886
smoothSolver:  Solving for omega, Initial residual = 7.97792e-07, Final residual = 7.97792e-07, No Iterations 0
smoothSolver:  Solving for k, Initial residual = 1.15868e-05, Final residual = 7.00757e-07, No Iterations 4
ExecutionTime = 127.34 s  ClockTime = 127 s

Time = 551

smoothSolver:  Solving for Ux, Initial residual = 2.50111e-06, Final residual = 7.01775e-07, No Iterations 3
smoothSolver:  Solving for Uy, Initial residual = 1.16726e-05, Final residual = 8.81714e-07, No Iterations 6
GAMG:  Solving for p, Initial residual = 3.03529e-06, Final residual = 9.99725e-07, No Iterations 24
time step continuity errors : sum local = 6.21917e-08, global = 6.94029e-09, cumulative = 0.00290887
smoothSolver:  Solving for omega, Initial residual = 7.99056e-07, Final residual = 7.99056e-07, No Iterations 0
smoothSolver:  Solving for k, Initial residual = 1.13126e-05, Final residual = 6.80276e-07, No Iterations 4
ExecutionTime = 127.43 s  ClockTime = 127 s

Time = 552

smoothSolver:  Solving for Ux, Initial residual = 2.42726e-06, Final residual = 6.80886e-07, No Iterations 3
smoothSolver:  Solving for Uy, Initial residual = 1.11899e-05, Final residual = 8.42974e-07, No Iterations 6
GAMG:  Solving for p, Initial residual = 2.97214e-06, Final residual = 9.99367e-07, No Iterations 25
time step continuity errors : sum local = 6.21431e-08, global = -5.69576e-09, cumulative = 0.00290886
smoothSolver:  Solving for omega, Initial residual = 8.00287e-07, Final residual = 8.00287e-07, No Iterations 0
smoothSolver:  Solving for k, Initial residual = 1.10345e-05, Final residual = 6.60325e-07, No Iterations 4
ExecutionTime = 127.53 s  ClockTime = 127 s

Time = 553

smoothSolver:  Solving for Ux, Initial residual = 2.35517e-06, Final residual = 6.60574e-07, No Iterations 3
smoothSolver:  Solving for Uy, Initial residual = 1.07054e-05, Final residual = 8.04572e-07, No Iterations 6
GAMG:  Solving for p, Initial residual = 2.90349e-06, Final residual = 9.94811e-07, No Iterations 23
time step continuity errors : sum local = 6.18343e-08, global = -5.5595e-09, cumulative = 0.00290886
smoothSolver:  Solving for omega, Initial residual = 8.01491e-07, Final residual = 8.01491e-07, No Iterations 0
smoothSolver:  Solving for k, Initial residual = 1.07736e-05, Final residual = 6.40625e-07, No Iterations 4
ExecutionTime = 127.62 s  ClockTime = 127 s

Time = 554

smoothSolver:  Solving for Ux, Initial residual = 2.28551e-06, Final residual = 9.76403e-07, No Iterations 2
smoothSolver:  Solving for Uy, Initial residual = 1.02453e-05, Final residual = 7.67809e-07, No Iterations 6
GAMG:  Solving for p, Initial residual = 2.9361e-06, Final residual = 9.88637e-07, No Iterations 20
time step continuity errors : sum local = 6.14262e-08, global = -5.37609e-09, cumulative = 0.00290885
smoothSolver:  Solving for omega, Initial residual = 8.02476e-07, Final residual = 8.02476e-07, No Iterations 0
smoothSolver:  Solving for k, Initial residual = 1.05003e-05, Final residual = 6.21562e-07, No Iterations 4
ExecutionTime = 127.7 s  ClockTime = 127 s

Time = 555

smoothSolver:  Solving for Ux, Initial residual = 2.2333e-06, Final residual = 9.53765e-07, No Iterations 2
smoothSolver:  Solving for Uy, Initial residual = 8.66309e-06, Final residual = 9.86748e-07, No Iterations 5
GAMG:  Solving for p, Initial residual = 2.6136e-06, Final residual = 9.95099e-07, No Iterations 16
time step continuity errors : sum local = 6.18038e-08, global = -5.39141e-09, cumulative = 0.00290885
smoothSolver:  Solving for omega, Initial residual = 8.03461e-07, Final residual = 8.03461e-07, No Iterations 0
smoothSolver:  Solving for k, Initial residual = 1.02432e-05, Final residual = 6.0268e-07, No Iterations 4
ExecutionTime = 127.78 s  ClockTime = 127 s

Time = 556

smoothSolver:  Solving for Ux, Initial residual = 2.18041e-06, Final residual = 9.30888e-07, No Iterations 2
smoothSolver:  Solving for Uy, Initial residual = 8.27946e-06, Final residual = 9.40752e-07, No Iterations 5
GAMG:  Solving for p, Initial residual = 2.58078e-06, Final residual = 9.96791e-07, No Iterations 16
time step continuity errors : sum local = 6.18859e-08, global = -5.41939e-09, cumulative = 0.00290884
smoothSolver:  Solving for omega, Initial residual = 8.04441e-07, Final residual = 8.04441e-07, No Iterations 0
smoothSolver:  Solving for k, Initial residual = 9.98008e-06, Final residual = 5.84233e-07, No Iterations 4
ExecutionTime = 127.86 s  ClockTime = 128 s


SIMPLE solution converged in 556 iterations

End

