/*---------------------------------------------------------------------------*\
| =========                 |                                                 |
| \\      /  F ield         | OpenFOAM: The Open Source CFD Toolbox           |
|  \\    /   O peration     | Version:  2412                                  |
|   \\  /    A nd           | Website:  www.openfoam.com                      |
|    \\/     M anipulation  |                                                 |
\*---------------------------------------------------------------------------*/
Build  : _8dbc61e11c-20241220 OPENFOAM=2412 version=v2412
Arch   : "LSB;label=32;scalar=64"
Exec   : simpleFoam
Date   : Jun 09 2025
Time   : 14:37:55
Host   : WORKHORSE
PID    : 4189179
I/O    : uncollated
Case   : /home/rokot/OpenFOAM/OpenFOAM-v2412/rokot-24/Diffuser/LaunderSharmaKE
nProcs : 1
trapFpe: Floating point exception trapping enabled (FOAM_SIGFPE).
fileModificationChecking : Monitoring run-time modified files using timeStampMaster (fileModificationSkew 5, maxFileModificationPolls 20)
allowSystemOperations : Allowing user-supplied system call operations

// * * * * * * * * * * * * * * * * * * * * * * * * * * * * * * * * * * * * * //
Create time

Create mesh for time = 0


SIMPLE: convergence criteria
    field p	 tolerance 1e-05
    field U	 tolerance 1e-05
    field "(k|epsilon|omega|f|v2|nuTilda)"	 tolerance 1e-05

Reading field p

Reading field U

Reading/calculating face flux field phi

Selecting incompressible transport model Newtonian
Selecting turbulence model type RAS
Selecting RAS turbulence model LaunderSharmaKE
RAS
{
    RASModel        LaunderSharmaKE;
    turbulence      on;
    printCoeffs     on;
    Cmu             0.09;
    C1              1.44;
    C2              1.92;
    C3              0;
    sigmak          1;
    sigmaEps        1.3;
}

No MRF models present

No finite volume options present

Starting time loop

wallShearStress wallShearStress:
    processing (2) wall patches:
        lowerWall
        upperWall

turbulenceFields turbulenceFields1: storing fields:
    turbulenceProperties:R

Sampled surface:
    lowerWall -> raw
        sampledPatch: lowerWall : patches:(lowerWall)
    upperWall -> raw
        sampledPatch: upperWall : patches:(upperWall)

Sampled surface:
    interface -> raw
        isoSurface: interface : isoMethod:cell regularise:full snap:1 field:Ux value:(0)

Sampled set:
    line -> raw

Sampled set:
    line -> raw

Sampled set:
    line -> raw

Sampled set:
    line -> raw

Sampled set:
    line -> raw

Sampled set:
    line -> raw

Sampled set:
    line -> raw

Sampled set:
    line -> raw

Sampled set:
    line -> raw

Sampled set:
    line -> raw

Sampled set:
    line -> raw

Sampled set:
    line -> raw

Sampled set:
    line -> raw

Sampled set:
    line -> raw

Sampled set:
    line -> raw

Sampled set:
    line -> raw

Sampled set:
    line -> raw

Sampled set:
    line -> raw

Sampled set:
    line -> raw

Sampled set:
    line -> raw

Sampled set:
    line -> raw

Sampled set:
    line -> raw

Sampled set:
    line -> raw

Sampled set:
    line -> raw

Time = 1

smoothSolver:  Solving for Ux, Initial residual = 1, Final residual = 0.00785684, No Iterations 11
smoothSolver:  Solving for Uy, Initial residual = 1, Final residual = 0.00962911, No Iterations 13
GAMG:  Solving for p, Initial residual = 1, Final residual = 0.0419782, No Iterations 1000
time step continuity errors : sum local = 0.000172942, global = -7.24013e-05, cumulative = -7.24013e-05
smoothSolver:  Solving for epsilon, Initial residual = 0.309613, Final residual = 0.00237288, No Iterations 7
bounding epsilon, min: -0.000922754 max: 0.462367 average: 0.0272952
smoothSolver:  Solving for k, Initial residual = 1, Final residual = 0.00645372, No Iterations 10
ExecutionTime = 6.47 s  ClockTime = 6 s

Time = 2

smoothSolver:  Solving for Ux, Initial residual = 0.219374, Final residual = 0.00150551, No Iterations 9
smoothSolver:  Solving for Uy, Initial residual = 0.524266, Final residual = 0.00438221, No Iterations 9
GAMG:  Solving for p, Initial residual = 0.00594366, Final residual = 0.000869882, No Iterations 1000
time step continuity errors : sum local = 0.0131242, global = 0.000793567, cumulative = 0.000721165
smoothSolver:  Solving for epsilon, Initial residual = 0.531635, Final residual = 0.00486857, No Iterations 11
smoothSolver:  Solving for k, Initial residual = 0.284765, Final residual = 0.0020236, No Iterations 12
ExecutionTime = 8.51 s  ClockTime = 8 s

Time = 3

smoothSolver:  Solving for Ux, Initial residual = 0.150824, Final residual = 0.0010702, No Iterations 10
smoothSolver:  Solving for Uy, Initial residual = 0.128914, Final residual = 0.00111561, No Iterations 11
GAMG:  Solving for p, Initial residual = 0.0067643, Final residual = 0.000924015, No Iterations 1000
time step continuity errors : sum local = 0.0109155, global = 0.00139325, cumulative = 0.00211442
smoothSolver:  Solving for epsilon, Initial residual = 0.201996, Final residual = 0.00164023, No Iterations 3
smoothSolver:  Solving for k, Initial residual = 0.123635, Final residual = 0.000887226, No Iterations 12
ExecutionTime = 10.55 s  ClockTime = 10 s

Time = 4

smoothSolver:  Solving for Ux, Initial residual = 0.119654, Final residual = 0.001086, No Iterations 10
smoothSolver:  Solving for Uy, Initial residual = 0.0906879, Final residual = 0.0006633, No Iterations 12
GAMG:  Solving for p, Initial residual = 0.00674554, Final residual = 0.00285204, No Iterations 1000
time step continuity errors : sum local = 0.0271806, global = 0.00213184, cumulative = 0.00424626
smoothSolver:  Solving for epsilon, Initial residual = 0.29697, Final residual = 0.00258532, No Iterations 2
smoothSolver:  Solving for k, Initial residual = 0.0676156, Final residual = 0.000505531, No Iterations 12
ExecutionTime = 12.58 s  ClockTime = 12 s

Time = 5

smoothSolver:  Solving for Ux, Initial residual = 0.113187, Final residual = 0.00107186, No Iterations 10
smoothSolver:  Solving for Uy, Initial residual = 0.0990957, Final residual = 0.000736465, No Iterations 12
GAMG:  Solving for p, Initial residual = 0.00614992, Final residual = 0.00389695, No Iterations 1000
time step continuity errors : sum local = 0.028538, global = 0.00276053, cumulative = 0.00700678
smoothSolver:  Solving for epsilon, Initial residual = 0.0488014, Final residual = 0.0004787, No Iterations 5
bounding epsilon, min: -0.257232 max: 130.236 average: 2.77003
smoothSolver:  Solving for k, Initial residual = 0.0447761, Final residual = 0.000437647, No Iterations 11
ExecutionTime = 14.63 s  ClockTime = 14 s

Time = 6

smoothSolver:  Solving for Ux, Initial residual = 0.107742, Final residual = 0.000926699, No Iterations 10
smoothSolver:  Solving for Uy, Initial residual = 0.103213, Final residual = 0.000704626, No Iterations 12
GAMG:  Solving for p, Initial residual = 0.00837902, Final residual = 0.00612359, No Iterations 1000
time step continuity errors : sum local = 0.0288042, global = 0.00246912, cumulative = 0.0094759
smoothSolver:  Solving for epsilon, Initial residual = 0.0754484, Final residual = 0.000663147, No Iterations 3
bounding epsilon, min: -0.217034 max: 215.836 average: 2.7164
smoothSolver:  Solving for k, Initial residual = 0.0335442, Final residual = 0.000250304, No Iterations 11
bounding k, min: -0.00443668 max: 1.16525 average: 0.263759
ExecutionTime = 16.67 s  ClockTime = 17 s

Time = 7

smoothSolver:  Solving for Ux, Initial residual = 0.0967388, Final residual = 0.000739693, No Iterations 10
smoothSolver:  Solving for Uy, Initial residual = 0.119357, Final residual = 0.000824151, No Iterations 12
GAMG:  Solving for p, Initial residual = 0.0174159, Final residual = 0.0118864, No Iterations 1000
time step continuity errors : sum local = 0.0260857, global = 0.00220171, cumulative = 0.0116776
smoothSolver:  Solving for epsilon, Initial residual = 0.0300457, Final residual = 0.000260388, No Iterations 6
smoothSolver:  Solving for k, Initial residual = 0.0266513, Final residual = 0.000228603, No Iterations 10
ExecutionTime = 18.7 s  ClockTime = 19 s

Time = 8

smoothSolver:  Solving for Ux, Initial residual = 0.0733826, Final residual = 0.000512873, No Iterations 10
smoothSolver:  Solving for Uy, Initial residual = 0.11718, Final residual = 0.000801971, No Iterations 12
GAMG:  Solving for p, Initial residual = 0.0443703, Final residual = 0.0215874, No Iterations 1000
time step continuity errors : sum local = 0.019804, global = 0.00155489, cumulative = 0.0132325
smoothSolver:  Solving for epsilon, Initial residual = 0.0838415, Final residual = 0.000621562, No Iterations 4
bounding epsilon, min: -0.00580561 max: 167.174 average: 1.78223
smoothSolver:  Solving for k, Initial residual = 0.0200315, Final residual = 0.000159925, No Iterations 10
ExecutionTime = 20.73 s  ClockTime = 21 s

Time = 9

smoothSolver:  Solving for Ux, Initial residual = 0.0479879, Final residual = 0.00042906, No Iterations 10
smoothSolver:  Solving for Uy, Initial residual = 0.0946209, Final residual = 0.000649491, No Iterations 12
GAMG:  Solving for p, Initial residual = 0.0139926, Final residual = 0.00592773, No Iterations 1000
time step continuity errors : sum local = 0.0166648, global = 0.00111284, cumulative = 0.0143453
smoothSolver:  Solving for epsilon, Initial residual = 0.0354243, Final residual = 0.00028641, No Iterations 7
smoothSolver:  Solving for k, Initial residual = 0.0157992, Final residual = 0.000122861, No Iterations 10
ExecutionTime = 22.78 s  ClockTime = 23 s

Time = 10

smoothSolver:  Solving for Ux, Initial residual = 0.0353272, Final residual = 0.000330638, No Iterations 11
smoothSolver:  Solving for Uy, Initial residual = 0.0755337, Final residual = 0.000520203, No Iterations 12
GAMG:  Solving for p, Initial residual = 0.00910826, Final residual = 0.00218857, No Iterations 1000
time step continuity errors : sum local = 0.00927412, global = 0.000534537, cumulative = 0.0148799
smoothSolver:  Solving for epsilon, Initial residual = 0.0616576, Final residual = 0.00050608, No Iterations 7
smoothSolver:  Solving for k, Initial residual = 0.0126754, Final residual = 0.000101793, No Iterations 10
ExecutionTime = 24.81 s  ClockTime = 25 s

Time = 11

smoothSolver:  Solving for Ux, Initial residual = 0.0319811, Final residual = 0.000224855, No Iterations 12
smoothSolver:  Solving for Uy, Initial residual = 0.0885241, Final residual = 0.000593806, No Iterations 12
GAMG:  Solving for p, Initial residual = 0.00780757, Final residual = 0.00138976, No Iterations 1000
time step continuity errors : sum local = 0.00656873, global = 0.000229641, cumulative = 0.0151095
smoothSolver:  Solving for epsilon, Initial residual = 0.0667993, Final residual = 0.000492797, No Iterations 8
smoothSolver:  Solving for k, Initial residual = 0.0111397, Final residual = 9.07893e-05, No Iterations 10
ExecutionTime = 26.85 s  ClockTime = 27 s

Time = 12

smoothSolver:  Solving for Ux, Initial residual = 0.0318976, Final residual = 0.000234675, No Iterations 12
smoothSolver:  Solving for Uy, Initial residual = 0.187325, Final residual = 0.00125792, No Iterations 12
GAMG:  Solving for p, Initial residual = 0.00777003, Final residual = 0.000899436, No Iterations 1000
time step continuity errors : sum local = 0.00435554, global = 0.000330688, cumulative = 0.0154402
smoothSolver:  Solving for epsilon, Initial residual = 0.0754573, Final residual = 0.000476349, No Iterations 8
smoothSolver:  Solving for k, Initial residual = 0.00886106, Final residual = 6.05774e-05, No Iterations 11
ExecutionTime = 28.89 s  ClockTime = 29 s

Time = 13

smoothSolver:  Solving for Ux, Initial residual = 0.0275136, Final residual = 0.000187794, No Iterations 12
smoothSolver:  Solving for Uy, Initial residual = 0.298896, Final residual = 0.00292711, No Iterations 11
GAMG:  Solving for p, Initial residual = 0.00784414, Final residual = 0.00230513, No Iterations 1000
time step continuity errors : sum local = 0.00802863, global = 0.000402362, cumulative = 0.0158426
smoothSolver:  Solving for epsilon, Initial residual = 0.0605509, Final residual = 0.000498062, No Iterations 8
smoothSolver:  Solving for k, Initial residual = 0.00886109, Final residual = 6.28395e-05, No Iterations 11
ExecutionTime = 30.93 s  ClockTime = 31 s

Time = 14

smoothSolver:  Solving for Ux, Initial residual = 0.0176575, Final residual = 0.000164338, No Iterations 11
smoothSolver:  Solving for Uy, Initial residual = 0.235477, Final residual = 0.002253, No Iterations 11
GAMG:  Solving for p, Initial residual = 0.0157595, Final residual = 0.00473557, No Iterations 1000
time step continuity errors : sum local = 0.00727205, global = 0.000299568, cumulative = 0.0161421
smoothSolver:  Solving for epsilon, Initial residual = 0.0566816, Final residual = 0.000382712, No Iterations 9
smoothSolver:  Solving for k, Initial residual = 0.00883775, Final residual = 6.66305e-05, No Iterations 11
ExecutionTime = 32.97 s  ClockTime = 33 s

Time = 15

smoothSolver:  Solving for Ux, Initial residual = 0.0121939, Final residual = 9.51197e-05, No Iterations 11
smoothSolver:  Solving for Uy, Initial residual = 0.132901, Final residual = 0.00124738, No Iterations 11
GAMG:  Solving for p, Initial residual = 0.160936, Final residual = 0.0360752, No Iterations 1000
time step continuity errors : sum local = 0.00470571, global = 0.000125741, cumulative = 0.0162679
smoothSolver:  Solving for epsilon, Initial residual = 0.0550473, Final residual = 0.000451314, No Iterations 9
smoothSolver:  Solving for k, Initial residual = 0.00994964, Final residual = 6.9214e-05, No Iterations 11
ExecutionTime = 35.01 s  ClockTime = 35 s

Time = 16

smoothSolver:  Solving for Ux, Initial residual = 0.00887968, Final residual = 7.47667e-05, No Iterations 11
smoothSolver:  Solving for Uy, Initial residual = 0.0693445, Final residual = 0.000647491, No Iterations 11
GAMG:  Solving for p, Initial residual = 0.0182599, Final residual = 0.00287909, No Iterations 1000
time step continuity errors : sum local = 0.00218289, global = 3.81361e-05, cumulative = 0.016306
smoothSolver:  Solving for epsilon, Initial residual = 0.0411318, Final residual = 0.000264881, No Iterations 10
smoothSolver:  Solving for k, Initial residual = 0.00940424, Final residual = 7.40652e-05, No Iterations 11
ExecutionTime = 37.04 s  ClockTime = 37 s

Time = 17

smoothSolver:  Solving for Ux, Initial residual = 0.00806961, Final residual = 7.06169e-05, No Iterations 11
smoothSolver:  Solving for Uy, Initial residual = 0.114191, Final residual = 0.00109311, No Iterations 11
GAMG:  Solving for p, Initial residual = 0.010489, Final residual = 0.000823914, No Iterations 1000
time step continuity errors : sum local = 0.000633732, global = 6.04554e-05, cumulative = 0.0163665
smoothSolver:  Solving for epsilon, Initial residual = 0.0393509, Final residual = 0.00035784, No Iterations 9
smoothSolver:  Solving for k, Initial residual = 0.010095, Final residual = 7.69773e-05, No Iterations 11
ExecutionTime = 39.09 s  ClockTime = 39 s

Time = 18

smoothSolver:  Solving for Ux, Initial residual = 0.00624121, Final residual = 5.15802e-05, No Iterations 11
smoothSolver:  Solving for Uy, Initial residual = 0.10352, Final residual = 0.000971437, No Iterations 11
GAMG:  Solving for p, Initial residual = 0.0156126, Final residual = 0.00171609, No Iterations 1000
time step continuity errors : sum local = 0.000773226, global = 3.57677e-05, cumulative = 0.0164022
smoothSolver:  Solving for epsilon, Initial residual = 0.0356845, Final residual = 0.000339283, No Iterations 9
smoothSolver:  Solving for k, Initial residual = 0.00970676, Final residual = 8.01184e-05, No Iterations 11
ExecutionTime = 41.12 s  ClockTime = 41 s

Time = 19

smoothSolver:  Solving for Ux, Initial residual = 0.00503689, Final residual = 3.35963e-05, No Iterations 11
smoothSolver:  Solving for Uy, Initial residual = 0.0489696, Final residual = 0.000437684, No Iterations 11
GAMG:  Solving for p, Initial residual = 0.0397949, Final residual = 0.00285541, No Iterations 1000
time step continuity errors : sum local = 0.000444734, global = 1.45334e-05, cumulative = 0.0164168
smoothSolver:  Solving for epsilon, Initial residual = 0.0325994, Final residual = 0.000283792, No Iterations 9
smoothSolver:  Solving for k, Initial residual = 0.00979989, Final residual = 8.10993e-05, No Iterations 11
ExecutionTime = 43.15 s  ClockTime = 43 s

Time = 20

smoothSolver:  Solving for Ux, Initial residual = 0.00404318, Final residual = 3.1528e-05, No Iterations 11
smoothSolver:  Solving for Uy, Initial residual = 0.0152063, Final residual = 0.000121672, No Iterations 11
GAMG:  Solving for p, Initial residual = 0.0544211, Final residual = 0.0016074, No Iterations 1000
time step continuity errors : sum local = 0.000119213, global = 5.86986e-06, cumulative = 0.0164226
smoothSolver:  Solving for epsilon, Initial residual = 0.0198118, Final residual = 0.000136201, No Iterations 10
smoothSolver:  Solving for k, Initial residual = 0.00944525, Final residual = 8.13889e-05, No Iterations 11
ExecutionTime = 45.18 s  ClockTime = 45 s

Time = 21

smoothSolver:  Solving for Ux, Initial residual = 0.00357516, Final residual = 2.79901e-05, No Iterations 11
smoothSolver:  Solving for Uy, Initial residual = 0.0190877, Final residual = 0.000168881, No Iterations 11
GAMG:  Solving for p, Initial residual = 0.036128, Final residual = 0.00097708, No Iterations 1000
time step continuity errors : sum local = 8.66463e-05, global = 5.41005e-06, cumulative = 0.016428
smoothSolver:  Solving for epsilon, Initial residual = 0.0167321, Final residual = 0.000126151, No Iterations 10
smoothSolver:  Solving for k, Initial residual = 0.00918598, Final residual = 8.05499e-05, No Iterations 11
ExecutionTime = 47.23 s  ClockTime = 47 s

Time = 22

smoothSolver:  Solving for Ux, Initial residual = 0.00280893, Final residual = 2.32495e-05, No Iterations 11
smoothSolver:  Solving for Uy, Initial residual = 0.0117787, Final residual = 9.92523e-05, No Iterations 11
GAMG:  Solving for p, Initial residual = 0.020208, Final residual = 0.000462015, No Iterations 1000
time step continuity errors : sum local = 6.36488e-05, global = 2.73291e-06, cumulative = 0.0164308
smoothSolver:  Solving for epsilon, Initial residual = 0.0119668, Final residual = 0.000107018, No Iterations 10
smoothSolver:  Solving for k, Initial residual = 0.00883863, Final residual = 7.98721e-05, No Iterations 11
ExecutionTime = 49.28 s  ClockTime = 49 s

Time = 23

smoothSolver:  Solving for Ux, Initial residual = 0.00235109, Final residual = 2.01115e-05, No Iterations 11
smoothSolver:  Solving for Uy, Initial residual = 0.00560626, Final residual = 4.20581e-05, No Iterations 11
GAMG:  Solving for p, Initial residual = 0.0145921, Final residual = 0.000180383, No Iterations 1000
time step continuity errors : sum local = 2.86008e-05, global = 5.50829e-07, cumulative = 0.0164313
smoothSolver:  Solving for epsilon, Initial residual = 0.00880601, Final residual = 5.9999e-05, No Iterations 11
smoothSolver:  Solving for k, Initial residual = 0.00854733, Final residual = 7.98255e-05, No Iterations 11
ExecutionTime = 51.32 s  ClockTime = 51 s

Time = 24

smoothSolver:  Solving for Ux, Initial residual = 0.00206039, Final residual = 1.81207e-05, No Iterations 11
smoothSolver:  Solving for Uy, Initial residual = 0.00528828, Final residual = 4.27402e-05, No Iterations 11
GAMG:  Solving for p, Initial residual = 0.0130943, Final residual = 0.000172721, No Iterations 1000
time step continuity errors : sum local = 2.67373e-05, global = 8.69384e-07, cumulative = 0.0164322
smoothSolver:  Solving for epsilon, Initial residual = 0.00760986, Final residual = 5.53199e-05, No Iterations 11
smoothSolver:  Solving for k, Initial residual = 0.00835122, Final residual = 8.10918e-05, No Iterations 11
ExecutionTime = 53.35 s  ClockTime = 53 s

Time = 25

smoothSolver:  Solving for Ux, Initial residual = 0.00184435, Final residual = 1.63557e-05, No Iterations 11
smoothSolver:  Solving for Uy, Initial residual = 0.00441845, Final residual = 3.49959e-05, No Iterations 11
GAMG:  Solving for p, Initial residual = 0.0129032, Final residual = 0.000159363, No Iterations 1000
time step continuity errors : sum local = 2.2792e-05, global = 7.19564e-07, cumulative = 0.0164329
smoothSolver:  Solving for epsilon, Initial residual = 0.00655089, Final residual = 5.08572e-05, No Iterations 11
smoothSolver:  Solving for k, Initial residual = 0.00824989, Final residual = 5.57394e-05, No Iterations 12
ExecutionTime = 55.39 s  ClockTime = 55 s

Time = 26

smoothSolver:  Solving for Ux, Initial residual = 0.00165403, Final residual = 1.48707e-05, No Iterations 11
smoothSolver:  Solving for Uy, Initial residual = 0.00363334, Final residual = 2.76248e-05, No Iterations 11
GAMG:  Solving for p, Initial residual = 0.0126413, Final residual = 0.000132902, No Iterations 1000
time step continuity errors : sum local = 1.77757e-05, global = 5.57789e-07, cumulative = 0.0164335
smoothSolver:  Solving for epsilon, Initial residual = 0.00544708, Final residual = 4.49339e-05, No Iterations 11
smoothSolver:  Solving for k, Initial residual = 0.00837972, Final residual = 5.91794e-05, No Iterations 12
ExecutionTime = 57.42 s  ClockTime = 57 s

Time = 27

smoothSolver:  Solving for Ux, Initial residual = 0.00147447, Final residual = 1.34948e-05, No Iterations 11
smoothSolver:  Solving for Uy, Initial residual = 0.00330375, Final residual = 2.55458e-05, No Iterations 11
GAMG:  Solving for p, Initial residual = 0.0120592, Final residual = 0.000120533, No Iterations 983
time step continuity errors : sum local = 1.55011e-05, global = -5.32768e-07, cumulative = 0.0164329
smoothSolver:  Solving for epsilon, Initial residual = 0.00456523, Final residual = 3.98032e-05, No Iterations 11
smoothSolver:  Solving for k, Initial residual = 0.00879357, Final residual = 6.34673e-05, No Iterations 12
ExecutionTime = 59.42 s  ClockTime = 59 s

Time = 28

smoothSolver:  Solving for Ux, Initial residual = 0.00132226, Final residual = 1.22379e-05, No Iterations 11
smoothSolver:  Solving for Uy, Initial residual = 0.00306084, Final residual = 2.3726e-05, No Iterations 11
GAMG:  Solving for p, Initial residual = 0.0114825, Final residual = 0.000114818, No Iterations 963
time step continuity errors : sum local = 1.4168e-05, global = -5.15038e-07, cumulative = 0.0164324
smoothSolver:  Solving for epsilon, Initial residual = 0.00412292, Final residual = 3.54208e-05, No Iterations 11
smoothSolver:  Solving for k, Initial residual = 0.0094256, Final residual = 6.79853e-05, No Iterations 12
ExecutionTime = 61.41 s  ClockTime = 61 s

Time = 29

smoothSolver:  Solving for Ux, Initial residual = 0.00119476, Final residual = 1.11274e-05, No Iterations 11
smoothSolver:  Solving for Uy, Initial residual = 0.00286954, Final residual = 2.25843e-05, No Iterations 11
GAMG:  Solving for p, Initial residual = 0.0109452, Final residual = 0.000109283, No Iterations 946
time step continuity errors : sum local = 1.29326e-05, global = 4.75591e-07, cumulative = 0.0164329
smoothSolver:  Solving for epsilon, Initial residual = 0.00368396, Final residual = 3.08332e-05, No Iterations 11
smoothSolver:  Solving for k, Initial residual = 0.0101607, Final residual = 7.26602e-05, No Iterations 12
ExecutionTime = 63.34 s  ClockTime = 63 s

Time = 30

smoothSolver:  Solving for Ux, Initial residual = 0.00108592, Final residual = 1.01516e-05, No Iterations 11
smoothSolver:  Solving for Uy, Initial residual = 0.00270828, Final residual = 2.16361e-05, No Iterations 11
GAMG:  Solving for p, Initial residual = 0.0103596, Final residual = 0.000103506, No Iterations 941
time step continuity errors : sum local = 1.17567e-05, global = -4.84678e-07, cumulative = 0.0164324
smoothSolver:  Solving for epsilon, Initial residual = 0.00345991, Final residual = 2.63027e-05, No Iterations 11
smoothSolver:  Solving for k, Initial residual = 0.0109445, Final residual = 7.74262e-05, No Iterations 12
ExecutionTime = 65.27 s  ClockTime = 65 s

Time = 31

smoothSolver:  Solving for Ux, Initial residual = 0.000991011, Final residual = 9.29189e-06, No Iterations 11
smoothSolver:  Solving for Uy, Initial residual = 0.00257629, Final residual = 2.08934e-05, No Iterations 11
GAMG:  Solving for p, Initial residual = 0.00980787, Final residual = 9.79958e-05, No Iterations 914
time step continuity errors : sum local = 1.0697e-05, global = 4.29163e-07, cumulative = 0.0164329
smoothSolver:  Solving for epsilon, Initial residual = 0.00324502, Final residual = 2.20457e-05, No Iterations 11
smoothSolver:  Solving for k, Initial residual = 0.0117549, Final residual = 8.22753e-05, No Iterations 12
ExecutionTime = 67.15 s  ClockTime = 67 s

Time = 32

smoothSolver:  Solving for Ux, Initial residual = 0.000912962, Final residual = 8.55424e-06, No Iterations 11
smoothSolver:  Solving for Uy, Initial residual = 0.00244835, Final residual = 2.00996e-05, No Iterations 11
GAMG:  Solving for p, Initial residual = 0.00925257, Final residual = 9.23699e-05, No Iterations 898
time step continuity errors : sum local = 9.66953e-06, global = 3.98212e-07, cumulative = 0.0164332
smoothSolver:  Solving for epsilon, Initial residual = 0.00307536, Final residual = 2.75804e-05, No Iterations 10
smoothSolver:  Solving for k, Initial residual = 0.012594, Final residual = 8.71865e-05, No Iterations 12
ExecutionTime = 68.99 s  ClockTime = 69 s

Time = 33

smoothSolver:  Solving for Ux, Initial residual = 0.000851224, Final residual = 7.97944e-06, No Iterations 11
smoothSolver:  Solving for Uy, Initial residual = 0.00233816, Final residual = 1.9414e-05, No Iterations 11
GAMG:  Solving for p, Initial residual = 0.00872032, Final residual = 8.71778e-05, No Iterations 928
time step continuity errors : sum local = 8.78726e-06, global = 4.1911e-07, cumulative = 0.0164337
smoothSolver:  Solving for epsilon, Initial residual = 0.00300338, Final residual = 2.28596e-05, No Iterations 10
smoothSolver:  Solving for k, Initial residual = 0.0134552, Final residual = 9.22117e-05, No Iterations 12
ExecutionTime = 70.89 s  ClockTime = 71 s

Time = 34

smoothSolver:  Solving for Ux, Initial residual = 0.000803568, Final residual = 7.52432e-06, No Iterations 11
smoothSolver:  Solving for Uy, Initial residual = 0.00225015, Final residual = 1.8901e-05, No Iterations 11
GAMG:  Solving for p, Initial residual = 0.00818688, Final residual = 8.1753e-05, No Iterations 932
time step continuity errors : sum local = 7.9538e-06, global = 4.11102e-07, cumulative = 0.0164341
smoothSolver:  Solving for epsilon, Initial residual = 0.00298421, Final residual = 1.979e-05, No Iterations 10
smoothSolver:  Solving for k, Initial residual = 0.0143342, Final residual = 9.71199e-05, No Iterations 12
ExecutionTime = 72.79 s  ClockTime = 73 s

Time = 35

smoothSolver:  Solving for Ux, Initial residual = 0.00076649, Final residual = 7.14442e-06, No Iterations 11
smoothSolver:  Solving for Uy, Initial residual = 0.00215555, Final residual = 1.82802e-05, No Iterations 11
GAMG:  Solving for p, Initial residual = 0.00776239, Final residual = 7.75368e-05, No Iterations 920
time step continuity errors : sum local = 7.25681e-06, global = 3.93694e-07, cumulative = 0.0164345
smoothSolver:  Solving for epsilon, Initial residual = 0.0030179, Final residual = 2.86133e-05, No Iterations 9
smoothSolver:  Solving for k, Initial residual = 0.0152278, Final residual = 0.000102135, No Iterations 12
ExecutionTime = 74.68 s  ClockTime = 75 s

Time = 36

smoothSolver:  Solving for Ux, Initial residual = 0.000739606, Final residual = 6.84818e-06, No Iterations 11
smoothSolver:  Solving for Uy, Initial residual = 0.00206215, Final residual = 1.76597e-05, No Iterations 11
GAMG:  Solving for p, Initial residual = 0.00733454, Final residual = 7.32041e-05, No Iterations 910
time step continuity errors : sum local = 6.60308e-06, global = 3.73676e-07, cumulative = 0.0164348
smoothSolver:  Solving for epsilon, Initial residual = 0.0031314, Final residual = 2.86124e-05, No Iterations 9
smoothSolver:  Solving for k, Initial residual = 0.0161326, Final residual = 0.000106991, No Iterations 12
ExecutionTime = 76.54 s  ClockTime = 76 s

Time = 37

smoothSolver:  Solving for Ux, Initial residual = 0.000719643, Final residual = 6.62349e-06, No Iterations 11
smoothSolver:  Solving for Uy, Initial residual = 0.00198343, Final residual = 1.71535e-05, No Iterations 11
GAMG:  Solving for p, Initial residual = 0.0069856, Final residual = 6.97495e-05, No Iterations 896
time step continuity errors : sum local = 6.07814e-06, global = 3.58305e-07, cumulative = 0.0164352
smoothSolver:  Solving for epsilon, Initial residual = 0.0033174, Final residual = 3.06145e-05, No Iterations 9
smoothSolver:  Solving for k, Initial residual = 0.0170542, Final residual = 0.000170269, No Iterations 11
ExecutionTime = 78.37 s  ClockTime = 78 s

Time = 38

smoothSolver:  Solving for Ux, Initial residual = 0.00070552, Final residual = 6.46532e-06, No Iterations 11
smoothSolver:  Solving for Uy, Initial residual = 0.00191301, Final residual = 1.66841e-05, No Iterations 11
GAMG:  Solving for p, Initial residual = 0.00666148, Final residual = 6.65641e-05, No Iterations 884
time step continuity errors : sum local = 5.60923e-06, global = 3.44762e-07, cumulative = 0.0164356
smoothSolver:  Solving for epsilon, Initial residual = 0.00356882, Final residual = 3.40891e-05, No Iterations 9
smoothSolver:  Solving for k, Initial residual = 0.0179638, Final residual = 0.000177194, No Iterations 11
ExecutionTime = 80.18 s  ClockTime = 80 s

Time = 39

smoothSolver:  Solving for Ux, Initial residual = 0.000697025, Final residual = 6.37405e-06, No Iterations 11
smoothSolver:  Solving for Uy, Initial residual = 0.00184999, Final residual = 1.62593e-05, No Iterations 11
GAMG:  Solving for p, Initial residual = 0.00640397, Final residual = 6.37834e-05, No Iterations 870
time step continuity errors : sum local = 5.21626e-06, global = 3.33082e-07, cumulative = 0.0164359
smoothSolver:  Solving for epsilon, Initial residual = 0.00387394, Final residual = 3.85546e-05, No Iterations 9
smoothSolver:  Solving for k, Initial residual = 0.0188902, Final residual = 0.000184886, No Iterations 11
ExecutionTime = 81.96 s  ClockTime = 82 s

Time = 40

smoothSolver:  Solving for Ux, Initial residual = 0.000694004, Final residual = 6.34751e-06, No Iterations 11
smoothSolver:  Solving for Uy, Initial residual = 0.00179189, Final residual = 1.58621e-05, No Iterations 11
GAMG:  Solving for p, Initial residual = 0.00616264, Final residual = 6.15178e-05, No Iterations 856
time step continuity errors : sum local = 4.88209e-06, global = 3.2286e-07, cumulative = 0.0164362
smoothSolver:  Solving for epsilon, Initial residual = 0.00422391, Final residual = 2.78577e-05, No Iterations 10
smoothSolver:  Solving for k, Initial residual = 0.0198079, Final residual = 0.000191744, No Iterations 11
ExecutionTime = 83.71 s  ClockTime = 84 s

Time = 41

smoothSolver:  Solving for Ux, Initial residual = 0.000695585, Final residual = 6.37252e-06, No Iterations 11
smoothSolver:  Solving for Uy, Initial residual = 0.00173879, Final residual = 1.55079e-05, No Iterations 11
GAMG:  Solving for p, Initial residual = 0.00596411, Final residual = 5.94662e-05, No Iterations 842
time step continuity errors : sum local = 4.59279e-06, global = 3.13533e-07, cumulative = 0.0164365
smoothSolver:  Solving for epsilon, Initial residual = 0.00458347, Final residual = 3.10884e-05, No Iterations 10
smoothSolver:  Solving for k, Initial residual = 0.0207222, Final residual = 0.00019888, No Iterations 11
ExecutionTime = 85.44 s  ClockTime = 85 s

Time = 42

smoothSolver:  Solving for Ux, Initial residual = 0.000700808, Final residual = 6.42508e-06, No Iterations 11
smoothSolver:  Solving for Uy, Initial residual = 0.00169162, Final residual = 1.51881e-05, No Iterations 11
GAMG:  Solving for p, Initial residual = 0.00574778, Final residual = 5.72399e-05, No Iterations 832
time step continuity errors : sum local = 4.30435e-06, global = 3.02785e-07, cumulative = 0.0164368
smoothSolver:  Solving for epsilon, Initial residual = 0.0049463, Final residual = 3.4314e-05, No Iterations 10
smoothSolver:  Solving for k, Initial residual = 0.0216344, Final residual = 0.000205629, No Iterations 11
ExecutionTime = 87.14 s  ClockTime = 87 s

Time = 43

smoothSolver:  Solving for Ux, Initial residual = 0.000707926, Final residual = 6.49284e-06, No Iterations 11
smoothSolver:  Solving for Uy, Initial residual = 0.00164921, Final residual = 1.48961e-05, No Iterations 11
GAMG:  Solving for p, Initial residual = 0.00557843, Final residual = 5.55685e-05, No Iterations 820
time step continuity errors : sum local = 4.06563e-06, global = 2.93412e-07, cumulative = 0.0164371
smoothSolver:  Solving for epsilon, Initial residual = 0.00531085, Final residual = 3.7537e-05, No Iterations 10
smoothSolver:  Solving for k, Initial residual = 0.0225294, Final residual = 0.000212194, No Iterations 11
ExecutionTime = 88.83 s  ClockTime = 89 s

Time = 44

smoothSolver:  Solving for Ux, Initial residual = 0.000716213, Final residual = 6.57121e-06, No Iterations 11
smoothSolver:  Solving for Uy, Initial residual = 0.0016112, Final residual = 1.46224e-05, No Iterations 11
GAMG:  Solving for p, Initial residual = 0.00537322, Final residual = 5.37254e-05, No Iterations 812
time step continuity errors : sum local = 3.83443e-06, global = 2.83978e-07, cumulative = 0.0164374
smoothSolver:  Solving for epsilon, Initial residual = 0.0056725, Final residual = 4.06161e-05, No Iterations 10
smoothSolver:  Solving for k, Initial residual = 0.0234143, Final residual = 0.000218264, No Iterations 11
ExecutionTime = 90.49 s  ClockTime = 90 s

Time = 45

smoothSolver:  Solving for Ux, Initial residual = 0.000724931, Final residual = 6.65583e-06, No Iterations 11
smoothSolver:  Solving for Uy, Initial residual = 0.00157774, Final residual = 1.4378e-05, No Iterations 11
GAMG:  Solving for p, Initial residual = 0.00521717, Final residual = 5.21111e-05, No Iterations 804
time step continuity errors : sum local = 3.62621e-06, global = 2.74598e-07, cumulative = 0.0164377
smoothSolver:  Solving for epsilon, Initial residual = 0.00602407, Final residual = 4.35355e-05, No Iterations 10
smoothSolver:  Solving for k, Initial residual = 0.0242964, Final residual = 0.000224614, No Iterations 11
ExecutionTime = 92.14 s  ClockTime = 92 s

Time = 46

smoothSolver:  Solving for Ux, Initial residual = 0.00073412, Final residual = 6.74499e-06, No Iterations 11
smoothSolver:  Solving for Uy, Initial residual = 0.001547, Final residual = 1.41474e-05, No Iterations 11
GAMG:  Solving for p, Initial residual = 0.00505127, Final residual = 5.04056e-05, No Iterations 800
time step continuity errors : sum local = 3.41926e-06, global = 2.64462e-07, cumulative = 0.0164379
smoothSolver:  Solving for epsilon, Initial residual = 0.00636859, Final residual = 4.63795e-05, No Iterations 10
smoothSolver:  Solving for k, Initial residual = 0.0251423, Final residual = 0.000229873, No Iterations 11
ExecutionTime = 93.79 s  ClockTime = 94 s

Time = 47

smoothSolver:  Solving for Ux, Initial residual = 0.00074304, Final residual = 6.83241e-06, No Iterations 11
smoothSolver:  Solving for Uy, Initial residual = 0.00151927, Final residual = 1.39491e-05, No Iterations 11
GAMG:  Solving for p, Initial residual = 0.00492174, Final residual = 4.90276e-05, No Iterations 794
time step continuity errors : sum local = 3.24787e-06, global = 2.55779e-07, cumulative = 0.0164382
smoothSolver:  Solving for epsilon, Initial residual = 0.00670671, Final residual = 4.88953e-05, No Iterations 10
smoothSolver:  Solving for k, Initial residual = 0.0259712, Final residual = 0.000235193, No Iterations 11
ExecutionTime = 95.42 s  ClockTime = 95 s

Time = 48

smoothSolver:  Solving for Ux, Initial residual = 0.000751962, Final residual = 6.91568e-06, No Iterations 11
smoothSolver:  Solving for Uy, Initial residual = 0.0014956, Final residual = 1.37555e-05, No Iterations 11
GAMG:  Solving for p, Initial residual = 0.00477638, Final residual = 4.7687e-05, No Iterations 792
time step continuity errors : sum local = 3.08311e-06, global = 2.47259e-07, cumulative = 0.0164384
smoothSolver:  Solving for epsilon, Initial residual = 0.00702284, Final residual = 5.1114e-05, No Iterations 10
smoothSolver:  Solving for k, Initial residual = 0.026808, Final residual = 0.000241085, No Iterations 11
ExecutionTime = 97.04 s  ClockTime = 97 s

Time = 49

smoothSolver:  Solving for Ux, Initial residual = 0.000760117, Final residual = 6.99057e-06, No Iterations 11
smoothSolver:  Solving for Uy, Initial residual = 0.0014754, Final residual = 1.3589e-05, No Iterations 11
GAMG:  Solving for p, Initial residual = 0.00467781, Final residual = 4.67567e-05, No Iterations 788
time step continuity errors : sum local = 2.94809e-06, global = 2.39904e-07, cumulative = 0.0164387
smoothSolver:  Solving for epsilon, Initial residual = 0.00731213, Final residual = 5.2977e-05, No Iterations 10
smoothSolver:  Solving for k, Initial residual = 0.0275679, Final residual = 0.000244238, No Iterations 11
ExecutionTime = 98.67 s  ClockTime = 99 s

Time = 50

smoothSolver:  Solving for Ux, Initial residual = 0.000767414, Final residual = 7.05489e-06, No Iterations 11
smoothSolver:  Solving for Uy, Initial residual = 0.0014544, Final residual = 1.34257e-05, No Iterations 11
GAMG:  Solving for p, Initial residual = 0.00455678, Final residual = 4.5436e-05, No Iterations 790
time step continuity errors : sum local = 2.79803e-06, global = 2.31129e-07, cumulative = 0.0164389
smoothSolver:  Solving for epsilon, Initial residual = 0.00758089, Final residual = 5.45871e-05, No Iterations 10
smoothSolver:  Solving for k, Initial residual = 0.0283372, Final residual = 0.000249191, No Iterations 11
ExecutionTime = 100.29 s  ClockTime = 100 s

Time = 51

smoothSolver:  Solving for Ux, Initial residual = 0.000773635, Final residual = 7.10934e-06, No Iterations 11
smoothSolver:  Solving for Uy, Initial residual = 0.00143449, Final residual = 1.32675e-05, No Iterations 11
GAMG:  Solving for p, Initial residual = 0.00445313, Final residual = 4.45187e-05, No Iterations 790
time step continuity errors : sum local = 2.67674e-06, global = 2.2391e-07, cumulative = 0.0164391
smoothSolver:  Solving for epsilon, Initial residual = 0.00782007, Final residual = 5.58206e-05, No Iterations 10
smoothSolver:  Solving for k, Initial residual = 0.0290797, Final residual = 0.000253445, No Iterations 11
ExecutionTime = 101.92 s  ClockTime = 102 s

Time = 52

smoothSolver:  Solving for Ux, Initial residual = 0.000778639, Final residual = 7.15197e-06, No Iterations 11
smoothSolver:  Solving for Uy, Initial residual = 0.00141319, Final residual = 1.31053e-05, No Iterations 11
GAMG:  Solving for p, Initial residual = 0.00432961, Final residual = 4.31426e-05, No Iterations 798
time step continuity errors : sum local = 2.53223e-06, global = 2.14923e-07, cumulative = 0.0164394
smoothSolver:  Solving for epsilon, Initial residual = 0.00803927, Final residual = 5.6838e-05, No Iterations 10
smoothSolver:  Solving for k, Initial residual = 0.0297733, Final residual = 0.000256521, No Iterations 11
ExecutionTime = 103.55 s  ClockTime = 103 s

Time = 53

smoothSolver:  Solving for Ux, Initial residual = 0.000782385, Final residual = 7.18063e-06, No Iterations 11
smoothSolver:  Solving for Uy, Initial residual = 0.001393, Final residual = 1.29567e-05, No Iterations 11
GAMG:  Solving for p, Initial residual = 0.00418636, Final residual = 4.18106e-05, No Iterations 806
time step continuity errors : sum local = 2.39964e-06, global = 2.06479e-07, cumulative = 0.0164396
smoothSolver:  Solving for epsilon, Initial residual = 0.00823043, Final residual = 5.74472e-05, No Iterations 10
smoothSolver:  Solving for k, Initial residual = 0.0304778, Final residual = 0.000260894, No Iterations 11
ExecutionTime = 105.21 s  ClockTime = 105 s

Time = 54

smoothSolver:  Solving for Ux, Initial residual = 0.000784915, Final residual = 7.19579e-06, No Iterations 11
smoothSolver:  Solving for Uy, Initial residual = 0.0013739, Final residual = 1.28096e-05, No Iterations 11
GAMG:  Solving for p, Initial residual = 0.00403627, Final residual = 4.02233e-05, No Iterations 822
time step continuity errors : sum local = 2.25683e-06, global = 1.96405e-07, cumulative = 0.0164398
smoothSolver:  Solving for epsilon, Initial residual = 0.00840269, Final residual = 5.78846e-05, No Iterations 10
smoothSolver:  Solving for k, Initial residual = 0.0311478, Final residual = 0.000264523, No Iterations 11
ExecutionTime = 106.9 s  ClockTime = 107 s

Time = 55

smoothSolver:  Solving for Ux, Initial residual = 0.000786353, Final residual = 7.19815e-06, No Iterations 11
smoothSolver:  Solving for Uy, Initial residual = 0.00135865, Final residual = 1.26748e-05, No Iterations 11
GAMG:  Solving for p, Initial residual = 0.00393123, Final residual = 3.9157e-05, No Iterations 834
time step continuity errors : sum local = 2.14471e-06, global = 1.88189e-07, cumulative = 0.0164399
smoothSolver:  Solving for epsilon, Initial residual = 0.00855132, Final residual = 5.80819e-05, No Iterations 10
smoothSolver:  Solving for k, Initial residual = 0.0317648, Final residual = 0.000265658, No Iterations 11
ExecutionTime = 108.64 s  ClockTime = 109 s

Time = 56

smoothSolver:  Solving for Ux, Initial residual = 0.000786841, Final residual = 7.18635e-06, No Iterations 11
smoothSolver:  Solving for Uy, Initial residual = 0.00134765, Final residual = 1.25616e-05, No Iterations 11
GAMG:  Solving for p, Initial residual = 0.00381521, Final residual = 3.80614e-05, No Iterations 850
time step continuity errors : sum local = 2.03443e-06, global = 1.79023e-07, cumulative = 0.0164401
smoothSolver:  Solving for epsilon, Initial residual = 0.00867547, Final residual = 5.79852e-05, No Iterations 10
smoothSolver:  Solving for k, Initial residual = 0.0324028, Final residual = 0.000270268, No Iterations 11
ExecutionTime = 110.38 s  ClockTime = 110 s

Time = 57

smoothSolver:  Solving for Ux, Initial residual = 0.000786657, Final residual = 7.16657e-06, No Iterations 11
smoothSolver:  Solving for Uy, Initial residual = 0.00133914, Final residual = 1.24668e-05, No Iterations 11
GAMG:  Solving for p, Initial residual = 0.00371656, Final residual = 3.71112e-05, No Iterations 870
time step continuity errors : sum local = 1.93506e-06, global = 1.70932e-07, cumulative = 0.0164403
smoothSolver:  Solving for epsilon, Initial residual = 0.00877729, Final residual = 5.77451e-05, No Iterations 10
smoothSolver:  Solving for k, Initial residual = 0.0329388, Final residual = 0.000270563, No Iterations 11
ExecutionTime = 112.15 s  ClockTime = 112 s

Time = 58

smoothSolver:  Solving for Ux, Initial residual = 0.000785435, Final residual = 7.13347e-06, No Iterations 11
smoothSolver:  Solving for Uy, Initial residual = 0.00133301, Final residual = 1.23739e-05, No Iterations 11
GAMG:  Solving for p, Initial residual = 0.00360806, Final residual = 3.60761e-05, No Iterations 888
time step continuity errors : sum local = 1.83449e-06, global = 1.62605e-07, cumulative = 0.0164405
smoothSolver:  Solving for epsilon, Initial residual = 0.00886251, Final residual = 5.73367e-05, No Iterations 10
smoothSolver:  Solving for k, Initial residual = 0.0334683, Final residual = 0.000271407, No Iterations 11
ExecutionTime = 113.97 s  ClockTime = 114 s

Time = 59

smoothSolver:  Solving for Ux, Initial residual = 0.00078379, Final residual = 7.0933e-06, No Iterations 11
smoothSolver:  Solving for Uy, Initial residual = 0.00132968, Final residual = 1.23162e-05, No Iterations 11
GAMG:  Solving for p, Initial residual = 0.00356043, Final residual = 3.54926e-05, No Iterations 902
time step continuity errors : sum local = 1.7576e-06, global = 1.56388e-07, cumulative = 0.0164406
smoothSolver:  Solving for epsilon, Initial residual = 0.00892704, Final residual = 5.6736e-05, No Iterations 10
smoothSolver:  Solving for k, Initial residual = 0.034, Final residual = 0.000274967, No Iterations 11
ExecutionTime = 115.83 s  ClockTime = 116 s

Time = 60

smoothSolver:  Solving for Ux, Initial residual = 0.000781523, Final residual = 7.04786e-06, No Iterations 11
smoothSolver:  Solving for Uy, Initial residual = 0.00132544, Final residual = 1.2261e-05, No Iterations 11
GAMG:  Solving for p, Initial residual = 0.00352644, Final residual = 3.5212e-05, No Iterations 918
time step continuity errors : sum local = 1.69688e-06, global = 1.5142e-07, cumulative = 0.0164408
smoothSolver:  Solving for epsilon, Initial residual = 0.00897382, Final residual = 8.87199e-05, No Iterations 9
smoothSolver:  Solving for k, Initial residual = 0.0345091, Final residual = 0.000275308, No Iterations 11
ExecutionTime = 117.7 s  ClockTime = 118 s

Time = 61

smoothSolver:  Solving for Ux, Initial residual = 0.000780116, Final residual = 7.00493e-06, No Iterations 11
smoothSolver:  Solving for Uy, Initial residual = 0.00132016, Final residual = 1.22197e-05, No Iterations 11
GAMG:  Solving for p, Initial residual = 0.00352022, Final residual = 3.51465e-05, No Iterations 934
time step continuity errors : sum local = 1.64381e-06, global = 1.47287e-07, cumulative = 0.0164409
smoothSolver:  Solving for epsilon, Initial residual = 0.00901158, Final residual = 8.76298e-05, No Iterations 9
smoothSolver:  Solving for k, Initial residual = 0.034992, Final residual = 0.000274583, No Iterations 11
ExecutionTime = 119.61 s  ClockTime = 119 s

Time = 62

smoothSolver:  Solving for Ux, Initial residual = 0.000777982, Final residual = 6.95259e-06, No Iterations 11
smoothSolver:  Solving for Uy, Initial residual = 0.00131496, Final residual = 1.21846e-05, No Iterations 11
GAMG:  Solving for p, Initial residual = 0.00351969, Final residual = 3.51762e-05, No Iterations 946
time step continuity errors : sum local = 1.59313e-06, global = 1.42768e-07, cumulative = 0.0164411
smoothSolver:  Solving for epsilon, Initial residual = 0.009031, Final residual = 8.61062e-05, No Iterations 9
smoothSolver:  Solving for k, Initial residual = 0.035523, Final residual = 0.00027843, No Iterations 11
ExecutionTime = 121.54 s  ClockTime = 121 s

Time = 63

smoothSolver:  Solving for Ux, Initial residual = 0.000775787, Final residual = 6.90048e-06, No Iterations 11
smoothSolver:  Solving for Uy, Initial residual = 0.00131123, Final residual = 1.21389e-05, No Iterations 11
GAMG:  Solving for p, Initial residual = 0.00357629, Final residual = 3.56245e-05, No Iterations 960
time step continuity errors : sum local = 1.56359e-06, global = 1.40701e-07, cumulative = 0.0164412
smoothSolver:  Solving for epsilon, Initial residual = 0.00903966, Final residual = 8.47406e-05, No Iterations 9
smoothSolver:  Solving for k, Initial residual = 0.035936, Final residual = 0.000277333, No Iterations 11
ExecutionTime = 123.5 s  ClockTime = 123 s

Time = 64

smoothSolver:  Solving for Ux, Initial residual = 0.000772494, Final residual = 6.84063e-06, No Iterations 11
smoothSolver:  Solving for Uy, Initial residual = 0.00130969, Final residual = 1.20929e-05, No Iterations 11
GAMG:  Solving for p, Initial residual = 0.00362994, Final residual = 3.61825e-05, No Iterations 968
time step continuity errors : sum local = 1.5381e-06, global = 1.39034e-07, cumulative = 0.0164413
smoothSolver:  Solving for epsilon, Initial residual = 0.00902284, Final residual = 8.28971e-05, No Iterations 9
smoothSolver:  Solving for k, Initial residual = 0.0363276, Final residual = 0.000276571, No Iterations 11
ExecutionTime = 125.48 s  ClockTime = 125 s

Time = 65

smoothSolver:  Solving for Ux, Initial residual = 0.000768981, Final residual = 6.77948e-06, No Iterations 11
smoothSolver:  Solving for Uy, Initial residual = 0.00130943, Final residual = 1.20534e-05, No Iterations 11
GAMG:  Solving for p, Initial residual = 0.00369302, Final residual = 3.69037e-05, No Iterations 976
time step continuity errors : sum local = 1.51602e-06, global = 1.3726e-07, cumulative = 0.0164415
smoothSolver:  Solving for epsilon, Initial residual = 0.00898891, Final residual = 8.1005e-05, No Iterations 9
smoothSolver:  Solving for k, Initial residual = 0.0367955, Final residual = 0.000279974, No Iterations 11
ExecutionTime = 127.46 s  ClockTime = 127 s

Time = 66

smoothSolver:  Solving for Ux, Initial residual = 0.000764725, Final residual = 6.71928e-06, No Iterations 11
smoothSolver:  Solving for Uy, Initial residual = 0.0013036, Final residual = 1.19949e-05, No Iterations 11
GAMG:  Solving for p, Initial residual = 0.00369337, Final residual = 3.69648e-05, No Iterations 1000
time step continuity errors : sum local = 1.4653e-06, global = 1.33173e-07, cumulative = 0.0164416
smoothSolver:  Solving for epsilon, Initial residual = 0.00894125, Final residual = 7.89359e-05, No Iterations 9
smoothSolver:  Solving for k, Initial residual = 0.0371605, Final residual = 0.000277535, No Iterations 11
ExecutionTime = 129.5 s  ClockTime = 129 s

Time = 67

smoothSolver:  Solving for Ux, Initial residual = 0.000759813, Final residual = 6.65502e-06, No Iterations 11
smoothSolver:  Solving for Uy, Initial residual = 0.00130126, Final residual = 1.19697e-05, No Iterations 11
GAMG:  Solving for p, Initial residual = 0.0036927, Final residual = 3.82443e-05, No Iterations 1000
time step continuity errors : sum local = 1.45977e-06, global = 1.33419e-07, cumulative = 0.0164417
smoothSolver:  Solving for epsilon, Initial residual = 0.00887679, Final residual = 7.66443e-05, No Iterations 9
smoothSolver:  Solving for k, Initial residual = 0.0375064, Final residual = 0.000277102, No Iterations 11
ExecutionTime = 131.53 s  ClockTime = 131 s

Time = 68

smoothSolver:  Solving for Ux, Initial residual = 0.000755155, Final residual = 6.59255e-06, No Iterations 11
smoothSolver:  Solving for Uy, Initial residual = 0.00129498, Final residual = 1.19457e-05, No Iterations 11
GAMG:  Solving for p, Initial residual = 0.00367336, Final residual = 4.03592e-05, No Iterations 1000
time step continuity errors : sum local = 1.48038e-06, global = 1.35647e-07, cumulative = 0.0164419
smoothSolver:  Solving for epsilon, Initial residual = 0.00879836, Final residual = 7.42424e-05, No Iterations 9
smoothSolver:  Solving for k, Initial residual = 0.0378818, Final residual = 0.00027666, No Iterations 11
ExecutionTime = 133.58 s  ClockTime = 133 s

Time = 69

smoothSolver:  Solving for Ux, Initial residual = 0.000750561, Final residual = 6.53103e-06, No Iterations 11
smoothSolver:  Solving for Uy, Initial residual = 0.00129188, Final residual = 1.1916e-05, No Iterations 11
GAMG:  Solving for p, Initial residual = 0.00375525, Final residual = 4.31129e-05, No Iterations 1000
time step continuity errors : sum local = 1.51775e-06, global = 1.39006e-07, cumulative = 0.016442
smoothSolver:  Solving for epsilon, Initial residual = 0.00870564, Final residual = 7.19739e-05, No Iterations 9
smoothSolver:  Solving for k, Initial residual = 0.0381568, Final residual = 0.000273449, No Iterations 11
ExecutionTime = 135.63 s  ClockTime = 136 s

Time = 70

smoothSolver:  Solving for Ux, Initial residual = 0.000746036, Final residual = 6.46956e-06, No Iterations 11
smoothSolver:  Solving for Uy, Initial residual = 0.00129029, Final residual = 1.18603e-05, No Iterations 11
GAMG:  Solving for p, Initial residual = 0.00389284, Final residual = 4.56511e-05, No Iterations 1000
time step continuity errors : sum local = 1.53856e-06, global = 1.40912e-07, cumulative = 0.0164422
smoothSolver:  Solving for epsilon, Initial residual = 0.00859912, Final residual = 6.93568e-05, No Iterations 9
smoothSolver:  Solving for k, Initial residual = 0.0383808, Final residual = 0.000270798, No Iterations 11
ExecutionTime = 137.68 s  ClockTime = 138 s

Time = 71

smoothSolver:  Solving for Ux, Initial residual = 0.0007422, Final residual = 6.41282e-06, No Iterations 11
smoothSolver:  Solving for Uy, Initial residual = 0.00129401, Final residual = 1.18447e-05, No Iterations 11
GAMG:  Solving for p, Initial residual = 0.00408053, Final residual = 4.85193e-05, No Iterations 1000
time step continuity errors : sum local = 1.56154e-06, global = 1.43365e-07, cumulative = 0.0164423
smoothSolver:  Solving for epsilon, Initial residual = 0.00848027, Final residual = 6.66547e-05, No Iterations 9
smoothSolver:  Solving for k, Initial residual = 0.0387355, Final residual = 0.000271826, No Iterations 11
ExecutionTime = 139.72 s  ClockTime = 140 s

Time = 72

smoothSolver:  Solving for Ux, Initial residual = 0.000739397, Final residual = 6.36527e-06, No Iterations 11
smoothSolver:  Solving for Uy, Initial residual = 0.00129665, Final residual = 1.18435e-05, No Iterations 11
GAMG:  Solving for p, Initial residual = 0.00426011, Final residual = 5.2272e-05, No Iterations 1000
time step continuity errors : sum local = 1.60106e-06, global = 1.47187e-07, cumulative = 0.0164424
smoothSolver:  Solving for epsilon, Initial residual = 0.00836328, Final residual = 6.43212e-05, No Iterations 9
smoothSolver:  Solving for k, Initial residual = 0.0389367, Final residual = 0.000266928, No Iterations 11
ExecutionTime = 141.74 s  ClockTime = 142 s

Time = 73

smoothSolver:  Solving for Ux, Initial residual = 0.000736329, Final residual = 6.31533e-06, No Iterations 11
smoothSolver:  Solving for Uy, Initial residual = 0.00129302, Final residual = 1.18107e-05, No Iterations 11
GAMG:  Solving for p, Initial residual = 0.00443896, Final residual = 5.53991e-05, No Iterations 1000
time step continuity errors : sum local = 1.6071e-06, global = 1.48228e-07, cumulative = 0.0164426
smoothSolver:  Solving for epsilon, Initial residual = 0.00822199, Final residual = 6.14771e-05, No Iterations 9
smoothSolver:  Solving for k, Initial residual = 0.0392605, Final residual = 0.000268418, No Iterations 11
ExecutionTime = 143.77 s  ClockTime = 144 s

Time = 74

smoothSolver:  Solving for Ux, Initial residual = 0.000734945, Final residual = 6.28086e-06, No Iterations 11
smoothSolver:  Solving for Uy, Initial residual = 0.00129199, Final residual = 1.18059e-05, No Iterations 11
GAMG:  Solving for p, Initial residual = 0.00458033, Final residual = 6.01065e-05, No Iterations 1000
time step continuity errors : sum local = 1.64681e-06, global = 1.53146e-07, cumulative = 0.0164427
smoothSolver:  Solving for epsilon, Initial residual = 0.00808574, Final residual = 5.90441e-05, No Iterations 9
smoothSolver:  Solving for k, Initial residual = 0.0393903, Final residual = 0.000263189, No Iterations 11
ExecutionTime = 145.82 s  ClockTime = 146 s

Time = 75

smoothSolver:  Solving for Ux, Initial residual = 0.000733506, Final residual = 6.24422e-06, No Iterations 11
smoothSolver:  Solving for Uy, Initial residual = 0.00129247, Final residual = 1.17918e-05, No Iterations 11
GAMG:  Solving for p, Initial residual = 0.00447129, Final residual = 6.02945e-05, No Iterations 1000
time step continuity errors : sum local = 1.64472e-06, global = 1.54387e-07, cumulative = 0.0164429
smoothSolver:  Solving for epsilon, Initial residual = 0.00793621, Final residual = 5.63157e-05, No Iterations 9
smoothSolver:  Solving for k, Initial residual = 0.0394838, Final residual = 0.00025856, No Iterations 11
ExecutionTime = 147.85 s  ClockTime = 148 s

Time = 76

smoothSolver:  Solving for Ux, Initial residual = 0.000732433, Final residual = 6.21635e-06, No Iterations 11
smoothSolver:  Solving for Uy, Initial residual = 0.00129234, Final residual = 1.1768e-05, No Iterations 11
GAMG:  Solving for p, Initial residual = 0.00411762, Final residual = 5.75998e-05, No Iterations 1000
time step continuity errors : sum local = 1.66346e-06, global = 1.57857e-07, cumulative = 0.0164431
smoothSolver:  Solving for epsilon, Initial residual = 0.00778211, Final residual = 5.3848e-05, No Iterations 9
smoothSolver:  Solving for k, Initial residual = 0.0396825, Final residual = 0.000257798, No Iterations 11
ExecutionTime = 149.89 s  ClockTime = 150 s

Time = 77

smoothSolver:  Solving for Ux, Initial residual = 0.000732245, Final residual = 6.19718e-06, No Iterations 11
smoothSolver:  Solving for Uy, Initial residual = 0.00129389, Final residual = 1.17324e-05, No Iterations 11
GAMG:  Solving for p, Initial residual = 0.00377525, Final residual = 5.49729e-05, No Iterations 1000
time step continuity errors : sum local = 1.67743e-06, global = 1.60011e-07, cumulative = 0.0164432
smoothSolver:  Solving for epsilon, Initial residual = 0.00762193, Final residual = 5.09492e-05, No Iterations 9
smoothSolver:  Solving for k, Initial residual = 0.0397858, Final residual = 0.000254686, No Iterations 11
ExecutionTime = 151.93 s  ClockTime = 152 s

Time = 78

smoothSolver:  Solving for Ux, Initial residual = 0.000733072, Final residual = 6.18738e-06, No Iterations 11
smoothSolver:  Solving for Uy, Initial residual = 0.00129646, Final residual = 1.17342e-05, No Iterations 11
GAMG:  Solving for p, Initial residual = 0.00350575, Final residual = 5.34254e-05, No Iterations 1000
time step continuity errors : sum local = 1.72016e-06, global = 1.66005e-07, cumulative = 0.0164434
smoothSolver:  Solving for epsilon, Initial residual = 0.0074733, Final residual = 4.87218e-05, No Iterations 9
smoothSolver:  Solving for k, Initial residual = 0.0398286, Final residual = 0.000390094, No Iterations 10
ExecutionTime = 153.95 s  ClockTime = 154 s

Time = 79

smoothSolver:  Solving for Ux, Initial residual = 0.000732814, Final residual = 6.16479e-06, No Iterations 11
smoothSolver:  Solving for Uy, Initial residual = 0.00129947, Final residual = 1.17457e-05, No Iterations 11
GAMG:  Solving for p, Initial residual = 0.0032628, Final residual = 5.06149e-05, No Iterations 1000
time step continuity errors : sum local = 1.71778e-06, global = 1.66922e-07, cumulative = 0.0164435
smoothSolver:  Solving for epsilon, Initial residual = 0.00729787, Final residual = 4.59397e-05, No Iterations 9
smoothSolver:  Solving for k, Initial residual = 0.0399323, Final residual = 0.000386055, No Iterations 10
ExecutionTime = 155.99 s  ClockTime = 156 s

Time = 80

smoothSolver:  Solving for Ux, Initial residual = 0.000734798, Final residual = 6.15832e-06, No Iterations 11
smoothSolver:  Solving for Uy, Initial residual = 0.00129818, Final residual = 1.17393e-05, No Iterations 11
GAMG:  Solving for p, Initial residual = 0.00308101, Final residual = 4.88294e-05, No Iterations 1000
time step continuity errors : sum local = 1.74319e-06, global = 1.71425e-07, cumulative = 0.0164437
smoothSolver:  Solving for epsilon, Initial residual = 0.00713311, Final residual = 7.08476e-05, No Iterations 8
smoothSolver:  Solving for k, Initial residual = 0.0401054, Final residual = 0.00038557, No Iterations 10
ExecutionTime = 158.02 s  ClockTime = 158 s

Time = 81

smoothSolver:  Solving for Ux, Initial residual = 0.000739512, Final residual = 6.17879e-06, No Iterations 11
smoothSolver:  Solving for Uy, Initial residual = 0.00130202, Final residual = 1.17386e-05, No Iterations 11
GAMG:  Solving for p, Initial residual = 0.0028698, Final residual = 4.81939e-05, No Iterations 1000
time step continuity errors : sum local = 1.80846e-06, global = 1.79608e-07, cumulative = 0.0164439
smoothSolver:  Solving for epsilon, Initial residual = 0.00697742, Final residual = 6.69153e-05, No Iterations 8
smoothSolver:  Solving for k, Initial residual = 0.0400408, Final residual = 0.000374984, No Iterations 10
ExecutionTime = 160.06 s  ClockTime = 160 s

Time = 82

smoothSolver:  Solving for Ux, Initial residual = 0.000743497, Final residual = 6.19802e-06, No Iterations 11
smoothSolver:  Solving for Uy, Initial residual = 0.00130776, Final residual = 1.17423e-05, No Iterations 11
GAMG:  Solving for p, Initial residual = 0.00267107, Final residual = 4.6672e-05, No Iterations 1000
time step continuity errors : sum local = 1.83921e-06, global = 1.84891e-07, cumulative = 0.0164441
smoothSolver:  Solving for epsilon, Initial residual = 0.00682361, Final residual = 6.34585e-05, No Iterations 8
smoothSolver:  Solving for k, Initial residual = 0.0400973, Final residual = 0.000372588, No Iterations 10
ExecutionTime = 162.08 s  ClockTime = 162 s

Time = 83

smoothSolver:  Solving for Ux, Initial residual = 0.000748339, Final residual = 6.224e-06, No Iterations 11
smoothSolver:  Solving for Uy, Initial residual = 0.00131024, Final residual = 1.17254e-05, No Iterations 11
GAMG:  Solving for p, Initial residual = 0.00248254, Final residual = 4.50241e-05, No Iterations 1000
time step continuity errors : sum local = 1.85875e-06, global = 1.89124e-07, cumulative = 0.0164443
smoothSolver:  Solving for epsilon, Initial residual = 0.00666481, Final residual = 5.95502e-05, No Iterations 8
smoothSolver:  Solving for k, Initial residual = 0.0400988, Final residual = 0.000363721, No Iterations 10
ExecutionTime = 164.13 s  ClockTime = 164 s

Time = 84

smoothSolver:  Solving for Ux, Initial residual = 0.000754393, Final residual = 6.25585e-06, No Iterations 11
smoothSolver:  Solving for Uy, Initial residual = 0.00131151, Final residual = 1.17268e-05, No Iterations 11
GAMG:  Solving for p, Initial residual = 0.00234977, Final residual = 4.34406e-05, No Iterations 1000
time step continuity errors : sum local = 1.87844e-06, global = 1.94236e-07, cumulative = 0.0164445
smoothSolver:  Solving for epsilon, Initial residual = 0.00651638, Final residual = 5.61567e-05, No Iterations 8
smoothSolver:  Solving for k, Initial residual = 0.0399988, Final residual = 0.000352825, No Iterations 10
ExecutionTime = 166.17 s  ClockTime = 166 s

Time = 85

smoothSolver:  Solving for Ux, Initial residual = 0.000760798, Final residual = 6.29009e-06, No Iterations 11
smoothSolver:  Solving for Uy, Initial residual = 0.00132137, Final residual = 1.17688e-05, No Iterations 11
GAMG:  Solving for p, Initial residual = 0.00224503, Final residual = 4.15909e-05, No Iterations 1000
time step continuity errors : sum local = 1.87937e-06, global = 1.96531e-07, cumulative = 0.0164447
smoothSolver:  Solving for epsilon, Initial residual = 0.00635958, Final residual = 5.27604e-05, No Iterations 8
smoothSolver:  Solving for k, Initial residual = 0.0399877, Final residual = 0.000347936, No Iterations 10
ExecutionTime = 168.2 s  ClockTime = 168 s

Time = 86

smoothSolver:  Solving for Ux, Initial residual = 0.000768545, Final residual = 6.33536e-06, No Iterations 11
smoothSolver:  Solving for Uy, Initial residual = 0.00132969, Final residual = 1.17927e-05, No Iterations 11
GAMG:  Solving for p, Initial residual = 0.00211889, Final residual = 4.05424e-05, No Iterations 1000
time step continuity errors : sum local = 1.91107e-06, global = 2.02475e-07, cumulative = 0.0164449
smoothSolver:  Solving for epsilon, Initial residual = 0.00620842, Final residual = 4.95845e-05, No Iterations 8
smoothSolver:  Solving for k, Initial residual = 0.0398927, Final residual = 0.000339392, No Iterations 10
ExecutionTime = 170.27 s  ClockTime = 170 s

Time = 87

smoothSolver:  Solving for Ux, Initial residual = 0.000775914, Final residual = 6.38607e-06, No Iterations 11
smoothSolver:  Solving for Uy, Initial residual = 0.00133729, Final residual = 1.17965e-05, No Iterations 11
GAMG:  Solving for p, Initial residual = 0.00198389, Final residual = 3.93298e-05, No Iterations 1000
time step continuity errors : sum local = 1.93386e-06, global = 2.06984e-07, cumulative = 0.0164451
smoothSolver:  Solving for epsilon, Initial residual = 0.00605344, Final residual = 4.64348e-05, No Iterations 8
smoothSolver:  Solving for k, Initial residual = 0.039882, Final residual = 0.00033188, No Iterations 10
ExecutionTime = 172.31 s  ClockTime = 172 s

Time = 88

smoothSolver:  Solving for Ux, Initial residual = 0.000783821, Final residual = 6.4405e-06, No Iterations 11
smoothSolver:  Solving for Uy, Initial residual = 0.00134621, Final residual = 1.17635e-05, No Iterations 11
GAMG:  Solving for p, Initial residual = 0.0019036, Final residual = 3.80392e-05, No Iterations 1000
time step continuity errors : sum local = 1.9518e-06, global = 2.12184e-07, cumulative = 0.0164453
smoothSolver:  Solving for epsilon, Initial residual = 0.00590484, Final residual = 4.33672e-05, No Iterations 8
smoothSolver:  Solving for k, Initial residual = 0.0396636, Final residual = 0.000322788, No Iterations 10
ExecutionTime = 174.34 s  ClockTime = 174 s

Time = 89

smoothSolver:  Solving for Ux, Initial residual = 0.00079271, Final residual = 6.50023e-06, No Iterations 11
smoothSolver:  Solving for Uy, Initial residual = 0.00135003, Final residual = 1.17474e-05, No Iterations 11
GAMG:  Solving for p, Initial residual = 0.00182229, Final residual = 3.67547e-05, No Iterations 1000
time step continuity errors : sum local = 1.96357e-06, global = 2.1643e-07, cumulative = 0.0164455
smoothSolver:  Solving for epsilon, Initial residual = 0.00575153, Final residual = 4.04519e-05, No Iterations 8
smoothSolver:  Solving for k, Initial residual = 0.039596, Final residual = 0.00031647, No Iterations 10
ExecutionTime = 176.38 s  ClockTime = 176 s

Time = 90

smoothSolver:  Solving for Ux, Initial residual = 0.000801597, Final residual = 6.56842e-06, No Iterations 11
smoothSolver:  Solving for Uy, Initial residual = 0.00135994, Final residual = 1.17596e-05, No Iterations 11
GAMG:  Solving for p, Initial residual = 0.00176277, Final residual = 3.61453e-05, No Iterations 1000
time step continuity errors : sum local = 2.00629e-06, global = 2.25063e-07, cumulative = 0.0164457
smoothSolver:  Solving for epsilon, Initial residual = 0.00560008, Final residual = 3.75623e-05, No Iterations 8
smoothSolver:  Solving for k, Initial residual = 0.0395259, Final residual = 0.000308746, No Iterations 10
ExecutionTime = 178.41 s  ClockTime = 178 s

Time = 91

smoothSolver:  Solving for Ux, Initial residual = 0.000811725, Final residual = 6.64518e-06, No Iterations 11
smoothSolver:  Solving for Uy, Initial residual = 0.00137229, Final residual = 1.17732e-05, No Iterations 11
GAMG:  Solving for p, Initial residual = 0.00166345, Final residual = 3.49952e-05, No Iterations 1000
time step continuity errors : sum local = 2.01292e-06, global = 2.29366e-07, cumulative = 0.016446
smoothSolver:  Solving for epsilon, Initial residual = 0.0054526, Final residual = 3.49701e-05, No Iterations 8
smoothSolver:  Solving for k, Initial residual = 0.0392844, Final residual = 0.000297578, No Iterations 10
ExecutionTime = 180.45 s  ClockTime = 180 s

Time = 92

smoothSolver:  Solving for Ux, Initial residual = 0.000822048, Final residual = 6.72453e-06, No Iterations 11
smoothSolver:  Solving for Uy, Initial residual = 0.00137273, Final residual = 1.1785e-05, No Iterations 11
GAMG:  Solving for p, Initial residual = 0.00157829, Final residual = 3.36022e-05, No Iterations 1000
time step continuity errors : sum local = 2.00464e-06, global = 2.31718e-07, cumulative = 0.0164462
smoothSolver:  Solving for epsilon, Initial residual = 0.00530149, Final residual = 3.2275e-05, No Iterations 8
smoothSolver:  Solving for k, Initial residual = 0.0392109, Final residual = 0.000292504, No Iterations 10
ExecutionTime = 182.47 s  ClockTime = 182 s

Time = 93

smoothSolver:  Solving for Ux, Initial residual = 0.000833762, Final residual = 6.81918e-06, No Iterations 11
smoothSolver:  Solving for Uy, Initial residual = 0.00138134, Final residual = 1.17297e-05, No Iterations 11
GAMG:  Solving for p, Initial residual = 0.00150468, Final residual = 3.28726e-05, No Iterations 1000
time step continuity errors : sum local = 2.03184e-06, global = 2.39878e-07, cumulative = 0.0164464
smoothSolver:  Solving for epsilon, Initial residual = 0.00515683, Final residual = 5.04281e-05, No Iterations 7
smoothSolver:  Solving for k, Initial residual = 0.0389401, Final residual = 0.000281777, No Iterations 10
ExecutionTime = 184.5 s  ClockTime = 184 s

Time = 94

smoothSolver:  Solving for Ux, Initial residual = 0.000846525, Final residual = 6.93391e-06, No Iterations 11
smoothSolver:  Solving for Uy, Initial residual = 0.00139778, Final residual = 1.1765e-05, No Iterations 11
GAMG:  Solving for p, Initial residual = 0.00145488, Final residual = 3.20419e-05, No Iterations 1000
time step continuity errors : sum local = 2.06748e-06, global = 2.48854e-07, cumulative = 0.0164467
smoothSolver:  Solving for epsilon, Initial residual = 0.00501765, Final residual = 4.65974e-05, No Iterations 7
smoothSolver:  Solving for k, Initial residual = 0.038848, Final residual = 0.000273383, No Iterations 10
ExecutionTime = 186.54 s  ClockTime = 186 s

Time = 95

smoothSolver:  Solving for Ux, Initial residual = 0.000859597, Final residual = 7.04959e-06, No Iterations 11
smoothSolver:  Solving for Uy, Initial residual = 0.00140432, Final residual = 1.17272e-05, No Iterations 11
GAMG:  Solving for p, Initial residual = 0.00138093, Final residual = 3.08184e-05, No Iterations 1000
time step continuity errors : sum local = 2.07524e-06, global = 2.55091e-07, cumulative = 0.0164469
smoothSolver:  Solving for epsilon, Initial residual = 0.00487809, Final residual = 4.34216e-05, No Iterations 7
smoothSolver:  Solving for k, Initial residual = 0.0385067, Final residual = 0.000265622, No Iterations 10
ExecutionTime = 188.58 s  ClockTime = 188 s

Time = 96

smoothSolver:  Solving for Ux, Initial residual = 0.000873239, Final residual = 7.17104e-06, No Iterations 11
smoothSolver:  Solving for Uy, Initial residual = 0.00140526, Final residual = 1.17023e-05, No Iterations 11
GAMG:  Solving for p, Initial residual = 0.00129628, Final residual = 2.94914e-05, No Iterations 1000
time step continuity errors : sum local = 2.0678e-06, global = 2.59173e-07, cumulative = 0.0164472
smoothSolver:  Solving for epsilon, Initial residual = 0.00473744, Final residual = 4.02042e-05, No Iterations 7
smoothSolver:  Solving for k, Initial residual = 0.0380305, Final residual = 0.000251645, No Iterations 10
ExecutionTime = 190.61 s  ClockTime = 190 s

Time = 97

smoothSolver:  Solving for Ux, Initial residual = 0.000886628, Final residual = 7.29232e-06, No Iterations 11
smoothSolver:  Solving for Uy, Initial residual = 0.00141676, Final residual = 1.16643e-05, No Iterations 11
GAMG:  Solving for p, Initial residual = 0.00123785, Final residual = 2.82022e-05, No Iterations 1000
time step continuity errors : sum local = 2.05157e-06, global = 2.61756e-07, cumulative = 0.0164475
smoothSolver:  Solving for epsilon, Initial residual = 0.00458747, Final residual = 3.68584e-05, No Iterations 7
smoothSolver:  Solving for k, Initial residual = 0.0378414, Final residual = 0.000248289, No Iterations 10
ExecutionTime = 192.64 s  ClockTime = 193 s

Time = 98

smoothSolver:  Solving for Ux, Initial residual = 0.000900286, Final residual = 7.42447e-06, No Iterations 11
smoothSolver:  Solving for Uy, Initial residual = 0.00142409, Final residual = 1.1649e-05, No Iterations 11
GAMG:  Solving for p, Initial residual = 0.00117868, Final residual = 2.76584e-05, No Iterations 1000
time step continuity errors : sum local = 2.09405e-06, global = 2.72749e-07, cumulative = 0.0164477
smoothSolver:  Solving for epsilon, Initial residual = 0.00445086, Final residual = 3.41239e-05, No Iterations 7
smoothSolver:  Solving for k, Initial residual = 0.037357, Final residual = 0.000237296, No Iterations 10
ExecutionTime = 194.67 s  ClockTime = 195 s

Time = 99

smoothSolver:  Solving for Ux, Initial residual = 0.00091431, Final residual = 7.55311e-06, No Iterations 11
smoothSolver:  Solving for Uy, Initial residual = 0.00142293, Final residual = 1.15951e-05, No Iterations 11
GAMG:  Solving for p, Initial residual = 0.00113521, Final residual = 2.65645e-05, No Iterations 1000
time step continuity errors : sum local = 2.07858e-06, global = 2.75164e-07, cumulative = 0.016448
smoothSolver:  Solving for epsilon, Initial residual = 0.0043059, Final residual = 3.13827e-05, No Iterations 7
smoothSolver:  Solving for k, Initial residual = 0.0367865, Final residual = 0.000367059, No Iterations 9
ExecutionTime = 196.71 s  ClockTime = 197 s

Time = 100

smoothSolver:  Solving for Ux, Initial residual = 0.000926545, Final residual = 7.67314e-06, No Iterations 11
smoothSolver:  Solving for Uy, Initial residual = 0.00142185, Final residual = 1.15477e-05, No Iterations 11
GAMG:  Solving for p, Initial residual = 0.00107968, Final residual = 2.54172e-05, No Iterations 1000
time step continuity errors : sum local = 2.04927e-06, global = 2.75645e-07, cumulative = 0.0164483
smoothSolver:  Solving for epsilon, Initial residual = 0.00415647, Final residual = 2.84984e-05, No Iterations 7
smoothSolver:  Solving for k, Initial residual = 0.0362566, Final residual = 0.000352476, No Iterations 9
ExecutionTime = 198.75 s  ClockTime = 199 s

Time = 101

smoothSolver:  Solving for Ux, Initial residual = 0.000939383, Final residual = 7.80637e-06, No Iterations 11
smoothSolver:  Solving for Uy, Initial residual = 0.00142621, Final residual = 1.14812e-05, No Iterations 11
GAMG:  Solving for p, Initial residual = 0.00103648, Final residual = 2.43429e-05, No Iterations 1000
time step continuity errors : sum local = 2.02598e-06, global = 2.7621e-07, cumulative = 0.0164486
smoothSolver:  Solving for epsilon, Initial residual = 0.00401261, Final residual = 2.60261e-05, No Iterations 7
smoothSolver:  Solving for k, Initial residual = 0.035844, Final residual = 0.000342348, No Iterations 9
ExecutionTime = 200.78 s  ClockTime = 201 s

Time = 102

smoothSolver:  Solving for Ux, Initial residual = 0.000954274, Final residual = 7.95022e-06, No Iterations 11
smoothSolver:  Solving for Uy, Initial residual = 0.00142987, Final residual = 1.14297e-05, No Iterations 11
GAMG:  Solving for p, Initial residual = 0.00100822, Final residual = 2.3726e-05, No Iterations 1000
time step continuity errors : sum local = 2.03496e-06, global = 2.816e-07, cumulative = 0.0164488
smoothSolver:  Solving for epsilon, Initial residual = 0.00386833, Final residual = 2.36121e-05, No Iterations 7
smoothSolver:  Solving for k, Initial residual = 0.0353485, Final residual = 0.000328193, No Iterations 9
ExecutionTime = 202.81 s  ClockTime = 203 s

Time = 103

smoothSolver:  Solving for Ux, Initial residual = 0.000968934, Final residual = 8.09975e-06, No Iterations 11
smoothSolver:  Solving for Uy, Initial residual = 0.0014272, Final residual = 1.13702e-05, No Iterations 11
GAMG:  Solving for p, Initial residual = 0.000981285, Final residual = 2.27936e-05, No Iterations 1000
time step continuity errors : sum local = 2.01739e-06, global = 2.83206e-07, cumulative = 0.0164491
smoothSolver:  Solving for epsilon, Initial residual = 0.00372391, Final residual = 3.71646e-05, No Iterations 6
smoothSolver:  Solving for k, Initial residual = 0.0346867, Final residual = 0.000311878, No Iterations 9
ExecutionTime = 204.84 s  ClockTime = 205 s

Time = 104

smoothSolver:  Solving for Ux, Initial residual = 0.000987826, Final residual = 8.28247e-06, No Iterations 11
smoothSolver:  Solving for Uy, Initial residual = 0.00143014, Final residual = 1.1328e-05, No Iterations 11
GAMG:  Solving for p, Initial residual = 0.00093149, Final residual = 2.23601e-05, No Iterations 1000
time step continuity errors : sum local = 2.03033e-06, global = 2.88756e-07, cumulative = 0.0164494
smoothSolver:  Solving for epsilon, Initial residual = 0.00359842, Final residual = 3.41883e-05, No Iterations 6
smoothSolver:  Solving for k, Initial residual = 0.0340326, Final residual = 0.000294337, No Iterations 9
ExecutionTime = 206.89 s  ClockTime = 207 s

Time = 105

smoothSolver:  Solving for Ux, Initial residual = 0.00100525, Final residual = 8.45894e-06, No Iterations 11
smoothSolver:  Solving for Uy, Initial residual = 0.00144528, Final residual = 1.12834e-05, No Iterations 11
GAMG:  Solving for p, Initial residual = 0.000901111, Final residual = 2.14391e-05, No Iterations 1000
time step continuity errors : sum local = 1.99988e-06, global = 2.87569e-07, cumulative = 0.0164497
smoothSolver:  Solving for epsilon, Initial residual = 0.00346796, Final residual = 3.10414e-05, No Iterations 6
smoothSolver:  Solving for k, Initial residual = 0.0335915, Final residual = 0.000290858, No Iterations 9
ExecutionTime = 208.92 s  ClockTime = 209 s

Time = 106

smoothSolver:  Solving for Ux, Initial residual = 0.00102334, Final residual = 8.64857e-06, No Iterations 11
smoothSolver:  Solving for Uy, Initial residual = 0.00144894, Final residual = 1.11986e-05, No Iterations 11
GAMG:  Solving for p, Initial residual = 0.000886493, Final residual = 2.09957e-05, No Iterations 1000
time step continuity errors : sum local = 1.99633e-06, global = 2.90109e-07, cumulative = 0.01645
smoothSolver:  Solving for epsilon, Initial residual = 0.00334571, Final residual = 2.84468e-05, No Iterations 6
smoothSolver:  Solving for k, Initial residual = 0.0329288, Final residual = 0.000279886, No Iterations 9
ExecutionTime = 210.96 s  ClockTime = 211 s

Time = 107

smoothSolver:  Solving for Ux, Initial residual = 0.00104174, Final residual = 8.84191e-06, No Iterations 11
smoothSolver:  Solving for Uy, Initial residual = 0.00144753, Final residual = 1.11474e-05, No Iterations 11
GAMG:  Solving for p, Initial residual = 0.000865871, Final residual = 2.02665e-05, No Iterations 1000
time step continuity errors : sum local = 1.96905e-06, global = 2.8847e-07, cumulative = 0.0164503
smoothSolver:  Solving for epsilon, Initial residual = 0.0032223, Final residual = 2.58172e-05, No Iterations 6
smoothSolver:  Solving for k, Initial residual = 0.0322389, Final residual = 0.000257181, No Iterations 9
ExecutionTime = 212.99 s  ClockTime = 213 s

Time = 108

smoothSolver:  Solving for Ux, Initial residual = 0.00106047, Final residual = 9.02379e-06, No Iterations 11
smoothSolver:  Solving for Uy, Initial residual = 0.00145343, Final residual = 1.11264e-05, No Iterations 11
GAMG:  Solving for p, Initial residual = 0.00084141, Final residual = 1.88204e-05, No Iterations 1000
time step continuity errors : sum local = 1.85888e-06, global = 2.74814e-07, cumulative = 0.0164505
smoothSolver:  Solving for epsilon, Initial residual = 0.00310041, Final residual = 2.36027e-05, No Iterations 6
smoothSolver:  Solving for k, Initial residual = 0.0313765, Final residual = 0.000242901, No Iterations 9
ExecutionTime = 215.03 s  ClockTime = 215 s

Time = 109

smoothSolver:  Solving for Ux, Initial residual = 0.00108038, Final residual = 9.2095e-06, No Iterations 11
smoothSolver:  Solving for Uy, Initial residual = 0.00145247, Final residual = 1.1052e-05, No Iterations 11
GAMG:  Solving for p, Initial residual = 0.000828206, Final residual = 1.74319e-05, No Iterations 1000
time step continuity errors : sum local = 1.75602e-06, global = 2.61781e-07, cumulative = 0.0164508
smoothSolver:  Solving for epsilon, Initial residual = 0.00298075, Final residual = 2.13517e-05, No Iterations 6
smoothSolver:  Solving for k, Initial residual = 0.0307019, Final residual = 0.000236498, No Iterations 9
ExecutionTime = 217.08 s  ClockTime = 217 s

Time = 110

smoothSolver:  Solving for Ux, Initial residual = 0.00110101, Final residual = 9.40903e-06, No Iterations 11
smoothSolver:  Solving for Uy, Initial residual = 0.00145, Final residual = 1.09755e-05, No Iterations 11
GAMG:  Solving for p, Initial residual = 0.000806527, Final residual = 1.68858e-05, No Iterations 1000
time step continuity errors : sum local = 1.72471e-06, global = 2.58987e-07, cumulative = 0.0164511
smoothSolver:  Solving for epsilon, Initial residual = 0.00286311, Final residual = 1.90609e-05, No Iterations 6
smoothSolver:  Solving for k, Initial residual = 0.0297906, Final residual = 0.000220018, No Iterations 9
ExecutionTime = 219.12 s  ClockTime = 219 s

Time = 111

smoothSolver:  Solving for Ux, Initial residual = 0.00112163, Final residual = 9.60597e-06, No Iterations 11
smoothSolver:  Solving for Uy, Initial residual = 0.00144642, Final residual = 1.09034e-05, No Iterations 11
GAMG:  Solving for p, Initial residual = 0.000787807, Final residual = 1.63185e-05, No Iterations 1000
[...]
time step continuity errors : sum local = 1.21696e-07, global = 1.47735e-08, cumulative = 0.0164572
smoothSolver:  Solving for epsilon, Initial residual = 1.14827e-06, Final residual = 1.68129e-07, No Iterations 1
smoothSolver:  Solving for k, Initial residual = 8.75893e-06, Final residual = 5.09307e-07, No Iterations 3
ExecutionTime = 512.07 s  ClockTime = 512 s

Time = 675

smoothSolver:  Solving for Ux, Initial residual = 5.14472e-06, Final residual = 9.15445e-07, No Iterations 4
smoothSolver:  Solving for Uy, Initial residual = 1.32068e-05, Final residual = 8.60981e-07, No Iterations 6
GAMG:  Solving for p, Initial residual = 1.88317e-06, Final residual = 9.77292e-07, No Iterations 4
time step continuity errors : sum local = 1.21903e-07, global = 1.47305e-08, cumulative = 0.0164572
smoothSolver:  Solving for epsilon, Initial residual = 1.15971e-06, Final residual = 1.61437e-07, No Iterations 1
smoothSolver:  Solving for k, Initial residual = 8.47411e-06, Final residual = 4.96518e-07, No Iterations 3
ExecutionTime = 512.13 s  ClockTime = 512 s

Time = 676

smoothSolver:  Solving for Ux, Initial residual = 5.0668e-06, Final residual = 9.08319e-07, No Iterations 4
smoothSolver:  Solving for Uy, Initial residual = 1.29528e-05, Final residual = 8.55444e-07, No Iterations 6
GAMG:  Solving for p, Initial residual = 1.74481e-06, Final residual = 9.77999e-07, No Iterations 6
time step continuity errors : sum local = 1.21771e-07, global = 1.52102e-08, cumulative = 0.0164572
smoothSolver:  Solving for epsilon, Initial residual = 1.00322e-06, Final residual = 1.39956e-07, No Iterations 1
smoothSolver:  Solving for k, Initial residual = 8.27355e-06, Final residual = 9.8249e-07, No Iterations 2
ExecutionTime = 512.18 s  ClockTime = 512 s

Time = 677

smoothSolver:  Solving for Ux, Initial residual = 5.01964e-06, Final residual = 9.01426e-07, No Iterations 4
smoothSolver:  Solving for Uy, Initial residual = 1.28761e-05, Final residual = 8.45882e-07, No Iterations 6
GAMG:  Solving for p, Initial residual = 1.86268e-06, Final residual = 9.96331e-07, No Iterations 4
time step continuity errors : sum local = 1.24287e-07, global = 1.53874e-08, cumulative = 0.0164573
smoothSolver:  Solving for epsilon, Initial residual = 8.78671e-07, Final residual = 8.78671e-07, No Iterations 0
smoothSolver:  Solving for k, Initial residual = 8.44578e-06, Final residual = 9.8632e-07, No Iterations 2
ExecutionTime = 512.24 s  ClockTime = 512 s

Time = 678

smoothSolver:  Solving for Ux, Initial residual = 4.89212e-06, Final residual = 8.90285e-07, No Iterations 4
smoothSolver:  Solving for Uy, Initial residual = 1.21436e-05, Final residual = 8.47067e-07, No Iterations 6
GAMG:  Solving for p, Initial residual = 2.00726e-06, Final residual = 9.71716e-07, No Iterations 8
time step continuity errors : sum local = 1.21005e-07, global = 1.53014e-08, cumulative = 0.0164573
smoothSolver:  Solving for epsilon, Initial residual = 1.05643e-06, Final residual = 1.51302e-07, No Iterations 1
smoothSolver:  Solving for k, Initial residual = 8.10869e-06, Final residual = 9.6803e-07, No Iterations 2
ExecutionTime = 512.31 s  ClockTime = 512 s

Time = 679

smoothSolver:  Solving for Ux, Initial residual = 4.94565e-06, Final residual = 8.83554e-07, No Iterations 4
smoothSolver:  Solving for Uy, Initial residual = 1.2636e-05, Final residual = 8.2775e-07, No Iterations 6
GAMG:  Solving for p, Initial residual = 1.73988e-06, Final residual = 9.85579e-07, No Iterations 4
time step continuity errors : sum local = 1.22899e-07, global = 1.51529e-08, cumulative = 0.0164573
smoothSolver:  Solving for epsilon, Initial residual = 1.00561e-06, Final residual = 1.44652e-07, No Iterations 1
smoothSolver:  Solving for k, Initial residual = 7.78527e-06, Final residual = 9.42797e-07, No Iterations 2
ExecutionTime = 512.37 s  ClockTime = 512 s

Time = 680

smoothSolver:  Solving for Ux, Initial residual = 4.88166e-06, Final residual = 8.76972e-07, No Iterations 4
smoothSolver:  Solving for Uy, Initial residual = 1.25247e-05, Final residual = 8.22921e-07, No Iterations 6
GAMG:  Solving for p, Initial residual = 1.79155e-06, Final residual = 9.87575e-07, No Iterations 6
time step continuity errors : sum local = 1.22982e-07, global = 1.5253e-08, cumulative = 0.0164573
smoothSolver:  Solving for epsilon, Initial residual = 9.03432e-07, Final residual = 9.03432e-07, No Iterations 0
smoothSolver:  Solving for k, Initial residual = 8.16698e-06, Final residual = 9.51027e-07, No Iterations 2
ExecutionTime = 512.42 s  ClockTime = 512 s

Time = 681

smoothSolver:  Solving for Ux, Initial residual = 4.76252e-06, Final residual = 8.65875e-07, No Iterations 4
smoothSolver:  Solving for Uy, Initial residual = 1.18325e-05, Final residual = 8.21668e-07, No Iterations 6
GAMG:  Solving for p, Initial residual = 1.98498e-06, Final residual = 9.84815e-07, No Iterations 6
time step continuity errors : sum local = 1.22811e-07, global = 1.49019e-08, cumulative = 0.0164573
smoothSolver:  Solving for epsilon, Initial residual = 1.06374e-06, Final residual = 1.57131e-07, No Iterations 1
smoothSolver:  Solving for k, Initial residual = 7.9105e-06, Final residual = 9.46025e-07, No Iterations 2
ExecutionTime = 512.48 s  ClockTime = 512 s

Time = 682

smoothSolver:  Solving for Ux, Initial residual = 4.82626e-06, Final residual = 8.59554e-07, No Iterations 4
smoothSolver:  Solving for Uy, Initial residual = 1.24353e-05, Final residual = 8.08337e-07, No Iterations 6
GAMG:  Solving for p, Initial residual = 1.82195e-06, Final residual = 9.98537e-07, No Iterations 4
time step continuity errors : sum local = 1.24319e-07, global = 1.52088e-08, cumulative = 0.0164573
smoothSolver:  Solving for epsilon, Initial residual = 1.0581e-06, Final residual = 1.48483e-07, No Iterations 1
smoothSolver:  Solving for k, Initial residual = 7.84654e-06, Final residual = 9.20202e-07, No Iterations 2
ExecutionTime = 512.55 s  ClockTime = 512 s

Time = 683

smoothSolver:  Solving for Ux, Initial residual = 4.75746e-06, Final residual = 8.53013e-07, No Iterations 4
smoothSolver:  Solving for Uy, Initial residual = 1.22858e-05, Final residual = 8.03633e-07, No Iterations 6
GAMG:  Solving for p, Initial residual = 1.76394e-06, Final residual = 9.88675e-07, No Iterations 6
time step continuity errors : sum local = 1.23297e-07, global = 1.49196e-08, cumulative = 0.0164573
smoothSolver:  Solving for epsilon, Initial residual = 9.32499e-07, Final residual = 9.32499e-07, No Iterations 0
smoothSolver:  Solving for k, Initial residual = 7.99457e-06, Final residual = 9.32937e-07, No Iterations 2
ExecutionTime = 512.6 s  ClockTime = 513 s

Time = 684

smoothSolver:  Solving for Ux, Initial residual = 4.63359e-06, Final residual = 8.42231e-07, No Iterations 4
smoothSolver:  Solving for Uy, Initial residual = 1.14726e-05, Final residual = 7.98861e-07, No Iterations 6
GAMG:  Solving for p, Initial residual = 1.94414e-06, Final residual = 9.84224e-07, No Iterations 6
time step continuity errors : sum local = 1.22549e-07, global = 1.47103e-08, cumulative = 0.0164574
smoothSolver:  Solving for epsilon, Initial residual = 1.09467e-06, Final residual = 1.613e-07, No Iterations 1
smoothSolver:  Solving for k, Initial residual = 7.85989e-06, Final residual = 9.21517e-07, No Iterations 2
ExecutionTime = 512.66 s  ClockTime = 513 s

Time = 685

smoothSolver:  Solving for Ux, Initial residual = 4.69969e-06, Final residual = 8.36068e-07, No Iterations 4
smoothSolver:  Solving for Uy, Initial residual = 1.21221e-05, Final residual = 7.85532e-07, No Iterations 6
GAMG:  Solving for p, Initial residual = 1.81982e-06, Final residual = 9.82504e-07, No Iterations 4
time step continuity errors : sum local = 1.22491e-07, global = 1.48245e-08, cumulative = 0.0164574
smoothSolver:  Solving for epsilon, Initial residual = 1.10159e-06, Final residual = 1.51197e-07, No Iterations 1
smoothSolver:  Solving for k, Initial residual = 7.61558e-06, Final residual = 9.00538e-07, No Iterations 2
ExecutionTime = 512.72 s  ClockTime = 513 s

Time = 686

smoothSolver:  Solving for Ux, Initial residual = 4.6282e-06, Final residual = 8.2971e-07, No Iterations 4
smoothSolver:  Solving for Uy, Initial residual = 1.19228e-05, Final residual = 7.80064e-07, No Iterations 6
GAMG:  Solving for p, Initial residual = 1.69015e-06, Final residual = 9.99049e-07, No Iterations 4
time step continuity errors : sum local = 1.24395e-07, global = 1.51797e-08, cumulative = 0.0164574
smoothSolver:  Solving for epsilon, Initial residual = 9.48993e-07, Final residual = 9.48993e-07, No Iterations 0
smoothSolver:  Solving for k, Initial residual = 7.93044e-06, Final residual = 9.11159e-07, No Iterations 2
ExecutionTime = 512.77 s  ClockTime = 513 s

Time = 687

smoothSolver:  Solving for Ux, Initial residual = 4.51486e-06, Final residual = 8.1919e-07, No Iterations 4
smoothSolver:  Solving for Uy, Initial residual = 1.12213e-05, Final residual = 7.81543e-07, No Iterations 6
GAMG:  Solving for p, Initial residual = 1.91164e-06, Final residual = 9.96058e-07, No Iterations 6
time step continuity errors : sum local = 1.2419e-07, global = 1.48204e-08, cumulative = 0.0164574
smoothSolver:  Solving for epsilon, Initial residual = 1.11774e-06, Final residual = 1.61762e-07, No Iterations 1
smoothSolver:  Solving for k, Initial residual = 7.69526e-06, Final residual = 9.07375e-07, No Iterations 2
ExecutionTime = 512.84 s  ClockTime = 513 s

Time = 688

smoothSolver:  Solving for Ux, Initial residual = 4.58309e-06, Final residual = 8.13303e-07, No Iterations 4
smoothSolver:  Solving for Uy, Initial residual = 1.18872e-05, Final residual = 7.65225e-07, No Iterations 6
GAMG:  Solving for p, Initial residual = 1.86192e-06, Final residual = 9.99062e-07, No Iterations 4
time step continuity errors : sum local = 1.24369e-07, global = 1.52601e-08, cumulative = 0.0164574
smoothSolver:  Solving for epsilon, Initial residual = 1.11354e-06, Final residual = 1.52084e-07, No Iterations 1
smoothSolver:  Solving for k, Initial residual = 7.62907e-06, Final residual = 8.82068e-07, No Iterations 2
ExecutionTime = 512.89 s  ClockTime = 513 s

Time = 689

smoothSolver:  Solving for Ux, Initial residual = 4.5109e-06, Final residual = 8.07092e-07, No Iterations 4
smoothSolver:  Solving for Uy, Initial residual = 1.16507e-05, Final residual = 7.58364e-07, No Iterations 6
GAMG:  Solving for p, Initial residual = 1.67605e-06, Final residual = 9.82841e-07, No Iterations 6
time step continuity errors : sum local = 1.22548e-07, global = 1.48145e-08, cumulative = 0.0164574
smoothSolver:  Solving for epsilon, Initial residual = 9.52589e-07, Final residual = 9.52589e-07, No Iterations 0
smoothSolver:  Solving for k, Initial residual = 7.73455e-06, Final residual = 8.95664e-07, No Iterations 2
ExecutionTime = 512.95 s  ClockTime = 513 s

Time = 690

smoothSolver:  Solving for Ux, Initial residual = 4.38854e-06, Final residual = 7.96857e-07, No Iterations 4
smoothSolver:  Solving for Uy, Initial residual = 1.08027e-05, Final residual = 7.53743e-07, No Iterations 6
GAMG:  Solving for p, Initial residual = 1.85444e-06, Final residual = 9.76912e-07, No Iterations 6
time step continuity errors : sum local = 1.21622e-07, global = 1.4552e-08, cumulative = 0.0164575
smoothSolver:  Solving for epsilon, Initial residual = 1.11901e-06, Final residual = 1.59514e-07, No Iterations 1
smoothSolver:  Solving for k, Initial residual = 7.60966e-06, Final residual = 8.85203e-07, No Iterations 2
ExecutionTime = 513.01 s  ClockTime = 513 s

Time = 691

smoothSolver:  Solving for Ux, Initial residual = 4.45816e-06, Final residual = 7.91092e-07, No Iterations 4
smoothSolver:  Solving for Uy, Initial residual = 1.15559e-05, Final residual = 7.42664e-07, No Iterations 6
GAMG:  Solving for p, Initial residual = 1.832e-06, Final residual = 9.75287e-07, No Iterations 4
time step continuity errors : sum local = 1.21574e-07, global = 1.46201e-08, cumulative = 0.0164575
smoothSolver:  Solving for epsilon, Initial residual = 1.10649e-06, Final residual = 1.50473e-07, No Iterations 1
smoothSolver:  Solving for k, Initial residual = 7.37834e-06, Final residual = 8.64491e-07, No Iterations 2
ExecutionTime = 513.07 s  ClockTime = 513 s

Time = 692

smoothSolver:  Solving for Ux, Initial residual = 4.38643e-06, Final residual = 7.8506e-07, No Iterations 4
smoothSolver:  Solving for Uy, Initial residual = 1.13373e-05, Final residual = 7.38295e-07, No Iterations 6
GAMG:  Solving for p, Initial residual = 1.61324e-06, Final residual = 9.79433e-07, No Iterations 4
time step continuity errors : sum local = 1.21936e-07, global = 1.47921e-08, cumulative = 0.0164575
smoothSolver:  Solving for epsilon, Initial residual = 9.51275e-07, Final residual = 9.51275e-07, No Iterations 0
smoothSolver:  Solving for k, Initial residual = 7.6546e-06, Final residual = 8.74694e-07, No Iterations 2
ExecutionTime = 513.13 s  ClockTime = 513 s

Time = 693

smoothSolver:  Solving for Ux, Initial residual = 4.27417e-06, Final residual = 7.75065e-07, No Iterations 4
smoothSolver:  Solving for Uy, Initial residual = 1.06246e-05, Final residual = 7.40162e-07, No Iterations 6
GAMG:  Solving for p, Initial residual = 1.82349e-06, Final residual = 9.76054e-07, No Iterations 6
time step continuity errors : sum local = 1.21678e-07, global = 1.43097e-08, cumulative = 0.0164575
smoothSolver:  Solving for epsilon, Initial residual = 1.11163e-06, Final residual = 1.56867e-07, No Iterations 1
smoothSolver:  Solving for k, Initial residual = 7.4197e-06, Final residual = 8.71471e-07, No Iterations 2
ExecutionTime = 513.19 s  ClockTime = 513 s

Time = 694

smoothSolver:  Solving for Ux, Initial residual = 4.34565e-06, Final residual = 7.69544e-07, No Iterations 4
smoothSolver:  Solving for Uy, Initial residual = 1.13382e-05, Final residual = 7.24363e-07, No Iterations 6
GAMG:  Solving for p, Initial residual = 1.85853e-06, Final residual = 9.8268e-07, No Iterations 4
time step continuity errors : sum local = 1.22315e-07, global = 1.46668e-08, cumulative = 0.0164575
smoothSolver:  Solving for epsilon, Initial residual = 1.09846e-06, Final residual = 1.48292e-07, No Iterations 1
smoothSolver:  Solving for k, Initial residual = 7.36168e-06, Final residual = 8.468e-07, No Iterations 2
ExecutionTime = 513.24 s  ClockTime = 513 s

Time = 695

smoothSolver:  Solving for Ux, Initial residual = 4.27574e-06, Final residual = 7.63641e-07, No Iterations 4
smoothSolver:  Solving for Uy, Initial residual = 1.10835e-05, Final residual = 7.17762e-07, No Iterations 6
GAMG:  Solving for p, Initial residual = 1.61455e-06, Final residual = 9.81425e-07, No Iterations 4
time step continuity errors : sum local = 1.22354e-07, global = 1.44978e-08, cumulative = 0.0164575
smoothSolver:  Solving for epsilon, Initial residual = 9.46575e-07, Final residual = 9.46575e-07, No Iterations 0
smoothSolver:  Solving for k, Initial residual = 7.44637e-06, Final residual = 8.59912e-07, No Iterations 2
ExecutionTime = 513.3 s  ClockTime = 513 s

Time = 696

smoothSolver:  Solving for Ux, Initial residual = 4.15428e-06, Final residual = 7.53923e-07, No Iterations 4
smoothSolver:  Solving for Uy, Initial residual = 1.0271e-05, Final residual = 7.17044e-07, No Iterations 6
GAMG:  Solving for p, Initial residual = 1.79357e-06, Final residual = 9.78895e-07, No Iterations 6
time step continuity errors : sum local = 1.21854e-07, global = 1.43068e-08, cumulative = 0.0164575
smoothSolver:  Solving for epsilon, Initial residual = 1.10077e-06, Final residual = 1.55791e-07, No Iterations 1
smoothSolver:  Solving for k, Initial residual = 7.33761e-06, Final residual = 8.50929e-07, No Iterations 2
ExecutionTime = 513.37 s  ClockTime = 513 s

Time = 697

smoothSolver:  Solving for Ux, Initial residual = 4.22777e-06, Final residual = 7.48495e-07, No Iterations 4
smoothSolver:  Solving for Uy, Initial residual = 1.10341e-05, Final residual = 7.03056e-07, No Iterations 6
GAMG:  Solving for p, Initial residual = 1.82874e-06, Final residual = 9.81189e-07, No Iterations 4
time step continuity errors : sum local = 1.22295e-07, global = 1.4321e-08, cumulative = 0.0164576
smoothSolver:  Solving for epsilon, Initial residual = 1.09903e-06, Final residual = 1.48755e-07, No Iterations 1
smoothSolver:  Solving for k, Initial residual = 7.13212e-06, Final residual = 8.31105e-07, No Iterations 2
ExecutionTime = 513.42 s  ClockTime = 513 s

Time = 698

smoothSolver:  Solving for Ux, Initial residual = 4.15916e-06, Final residual = 7.42773e-07, No Iterations 4
smoothSolver:  Solving for Uy, Initial residual = 1.07668e-05, Final residual = 6.96781e-07, No Iterations 6
GAMG:  Solving for p, Initial residual = 1.58336e-06, Final residual = 9.79898e-07, No Iterations 4
time step continuity errors : sum local = 1.21978e-07, global = 1.44549e-08, cumulative = 0.0164576
smoothSolver:  Solving for epsilon, Initial residual = 9.57824e-07, Final residual = 9.57824e-07, No Iterations 0
smoothSolver:  Solving for k, Initial residual = 7.40077e-06, Final residual = 8.41495e-07, No Iterations 2
ExecutionTime = 513.48 s  ClockTime = 513 s

Time = 699

smoothSolver:  Solving for Ux, Initial residual = 4.04764e-06, Final residual = 7.33285e-07, No Iterations 4
smoothSolver:  Solving for Uy, Initial residual = 1.00468e-05, Final residual = 6.97696e-07, No Iterations 6
GAMG:  Solving for p, Initial residual = 1.78375e-06, Final residual = 9.71256e-07, No Iterations 6
time step continuity errors : sum local = 1.21065e-07, global = 1.4101e-08, cumulative = 0.0164576
smoothSolver:  Solving for epsilon, Initial residual = 1.11346e-06, Final residual = 1.60063e-07, No Iterations 1
smoothSolver:  Solving for k, Initial residual = 7.18585e-06, Final residual = 8.39765e-07, No Iterations 2
ExecutionTime = 513.54 s  ClockTime = 513 s

Time = 700

smoothSolver:  Solving for Ux, Initial residual = 4.12424e-06, Final residual = 7.28069e-07, No Iterations 4
smoothSolver:  Solving for Uy, Initial residual = 1.07987e-05, Final residual = 6.83514e-07, No Iterations 6
GAMG:  Solving for p, Initial residual = 1.84266e-06, Final residual = 9.73017e-07, No Iterations 4
time step continuity errors : sum local = 1.21098e-07, global = 1.42807e-08, cumulative = 0.0164576
smoothSolver:  Solving for epsilon, Initial residual = 1.12711e-06, Final residual = 1.54067e-07, No Iterations 1
smoothSolver:  Solving for k, Initial residual = 7.14287e-06, Final residual = 8.16221e-07, No Iterations 2
ExecutionTime = 513.59 s  ClockTime = 513 s

Time = 701

smoothSolver:  Solving for Ux, Initial residual = 4.05527e-06, Final residual = 7.22424e-07, No Iterations 4
smoothSolver:  Solving for Uy, Initial residual = 1.05395e-05, Final residual = 6.78115e-07, No Iterations 6
GAMG:  Solving for p, Initial residual = 1.5773e-06, Final residual = 9.64326e-07, No Iterations 4
time step continuity errors : sum local = 1.20207e-07, global = 1.40006e-08, cumulative = 0.0164576
smoothSolver:  Solving for epsilon, Initial residual = 9.72044e-07, Final residual = 9.72044e-07, No Iterations 0
smoothSolver:  Solving for k, Initial residual = 7.24027e-06, Final residual = 8.30651e-07, No Iterations 2
ExecutionTime = 513.64 s  ClockTime = 514 s

Time = 702

smoothSolver:  Solving for Ux, Initial residual = 3.93706e-06, Final residual = 7.13271e-07, No Iterations 4
smoothSolver:  Solving for Uy, Initial residual = 9.73945e-06, Final residual = 6.77936e-07, No Iterations 6
GAMG:  Solving for p, Initial residual = 1.78613e-06, Final residual = 9.94677e-07, No Iterations 4
time step continuity errors : sum local = 1.23803e-07, global = 1.42413e-08, cumulative = 0.0164576
smoothSolver:  Solving for epsilon, Initial residual = 1.13755e-06, Final residual = 1.63536e-07, No Iterations 1
smoothSolver:  Solving for k, Initial residual = 7.12224e-06, Final residual = 8.20365e-07, No Iterations 2
ExecutionTime = 513.71 s  ClockTime = 514 s


SIMPLE solution converged in 702 iterations

End

